# generated using pymatgen
data_LaAl3Au
_symmetry_space_group_name_H-M   'P 1'
_cell_length_a   6.27213377
_cell_length_b   6.27213377
_cell_length_c   6.27213377
_cell_angle_alpha   139.29428746
_cell_angle_beta   139.29428746
_cell_angle_gamma   58.92640679
_symmetry_Int_Tables_number   1
_chemical_formula_structural   LaAl3Au
_chemical_formula_sum   'La1 Al3 Au1'
_cell_volume   103.94924623
_cell_formula_units_Z   1
loop_
 _symmetry_equiv_pos_site_id
 _symmetry_equiv_pos_as_xyz
  1  'x, y, z'
loop_
 _atom_site_type_symbol
 _atom_site_label
 _atom_site_symmetry_multiplicity
 _atom_site_fract_x
 _atom_site_fract_y
 _atom_site_fract_z
 _atom_site_occupancy
  La  La0  1  0.98908190  0.98908190  -0.00000000  1
  Al  Al1  1  0.39834979  0.39834979  0.00000000  1
  Al  Al2  1  0.25027262  0.75027262  0.50000000  1
  Al  Al3  1  0.75027262  0.25027262  0.50000000  1
  Au  Au4  1  0.62802207  0.62802207  -0.00000000  1
