# generated using pymatgen
data_ThSi3Rh
_symmetry_space_group_name_H-M   'P 1'
_cell_length_a   5.68816981
_cell_length_b   5.68816981
_cell_length_c   5.68816981
_cell_angle_alpha   135.93662979
_cell_angle_beta   135.93662979
_cell_angle_gamma   64.07832177
_symmetry_Int_Tables_number   1
_chemical_formula_structural   ThSi3Rh
_chemical_formula_sum   'Th1 Si3 Rh1'
_cell_volume   87.81147595
_cell_formula_units_Z   1
loop_
 _symmetry_equiv_pos_site_id
 _symmetry_equiv_pos_as_xyz
  1  'x, y, z'
loop_
 _atom_site_type_symbol
 _atom_site_label
 _atom_site_symmetry_multiplicity
 _atom_site_fract_x
 _atom_site_fract_y
 _atom_site_fract_z
 _atom_site_occupancy
  Th  Th0  1  -0.00003307  -0.00003307  -0.00000000  1
  Si  Si1  1  0.40969052  0.40969052  0.00000000  1
  Si  Si2  1  0.26437838  0.76437838  0.50000000  1
  Si  Si3  1  0.76437838  0.26437838  0.50000000  1
  Rh  Rh4  1  0.65558580  0.65558580  0.00000000  1
