# generated using pymatgen
data_YbAl3Au
_symmetry_space_group_name_H-M   'P 1'
_cell_length_a   6.50287452
_cell_length_b   6.50287452
_cell_length_c   6.50287452
_cell_angle_alpha   143.06373167
_cell_angle_beta   143.06373167
_cell_angle_gamma   53.22967040
_symmetry_Int_Tables_number   1
_chemical_formula_structural   YbAl3Au
_chemical_formula_sum   'Yb1 Al3 Au1'
_cell_volume   98.68247016
_cell_formula_units_Z   1
loop_
 _symmetry_equiv_pos_site_id
 _symmetry_equiv_pos_as_xyz
  1  'x, y, z'
loop_
 _atom_site_type_symbol
 _atom_site_label
 _atom_site_symmetry_multiplicity
 _atom_site_fract_x
 _atom_site_fract_y
 _atom_site_fract_z
 _atom_site_occupancy
  Yb  Yb0  1  0.00580026  0.00580026  0.00000000  1
  Al  Al1  1  0.74728630  0.24728630  0.50000000  1
  Al  Al2  1  0.24728630  0.74728630  0.50000000  1
  Al  Al3  1  0.39190351  0.39190351  -0.00000000  1
  Au  Au4  1  0.60772363  0.60772363  0.00000000  1
