# generated using pymatgen
data_DySbTe3
_symmetry_space_group_name_H-M   'P 1'
_cell_length_a   10.76923483
_cell_length_b   10.76923483
_cell_length_c   10.76923489
_cell_angle_alpha   23.33707589
_cell_angle_beta   23.33707589
_cell_angle_gamma   23.33707612
_symmetry_Int_Tables_number   1
_chemical_formula_structural   DySbTe3
_chemical_formula_sum   'Dy1 Sb1 Te3'
_cell_volume   172.08457561
_cell_formula_units_Z   1
loop_
 _symmetry_equiv_pos_site_id
 _symmetry_equiv_pos_as_xyz
  1  'x, y, z'
loop_
 _atom_site_type_symbol
 _atom_site_label
 _atom_site_symmetry_multiplicity
 _atom_site_fract_x
 _atom_site_fract_y
 _atom_site_fract_z
 _atom_site_occupancy
  Dy  Dy0  1  0.39764600  0.39764600  0.39764600  1
  Sb  Sb1  1  0.60108300  0.60108300  0.60108300  1
  Te  Te2  1  0.00223800  0.00223800  0.00223800  1
  Te  Te3  1  0.21548500  0.21548500  0.21548500  1
  Te  Te4  1  0.78354800  0.78354800  0.78354800  1
