# generated using pymatgen
data_KIO3
_symmetry_space_group_name_H-M   'P 1'
_cell_length_a   4.52215702
_cell_length_b   4.52215702
_cell_length_c   4.52215692
_cell_angle_alpha   88.48517690
_cell_angle_beta   88.48517690
_cell_angle_gamma   88.48517750
_symmetry_Int_Tables_number   1
_chemical_formula_structural   KIO3
_chemical_formula_sum   'K1 I1 O3'
_cell_volume   92.38239401
_cell_formula_units_Z   1
loop_
 _symmetry_equiv_pos_site_id
 _symmetry_equiv_pos_as_xyz
  1  'x, y, z'
loop_
 _atom_site_type_symbol
 _atom_site_label
 _atom_site_symmetry_multiplicity
 _atom_site_fract_x
 _atom_site_fract_y
 _atom_site_fract_z
 _atom_site_occupancy
  K  K0  1  0.50578900  0.50578900  0.50578900  1
  I  I1  1  0.00474200  0.00474200  0.00474200  1
  O  O2  1  0.05733700  0.59998400  0.03537800  1
  O  O3  1  0.59998400  0.03537800  0.05733700  1
  O  O4  1  0.03537800  0.05733700  0.59998400  1
