# generated using pymatgen
data_HgNCl3
_symmetry_space_group_name_H-M   'P 1'
_cell_length_a   4.13024000
_cell_length_b   4.13024000
_cell_length_c   8.01194800
_cell_angle_alpha   90.00000000
_cell_angle_beta   90.00000000
_cell_angle_gamma   90.00000000
_symmetry_Int_Tables_number   1
_chemical_formula_structural   HgNCl3
_chemical_formula_sum   'Hg1 N1 Cl3'
_cell_volume   136.67487919
_cell_formula_units_Z   1
loop_
 _symmetry_equiv_pos_site_id
 _symmetry_equiv_pos_as_xyz
  1  'x, y, z'
loop_
 _atom_site_type_symbol
 _atom_site_label
 _atom_site_symmetry_multiplicity
 _atom_site_fract_x
 _atom_site_fract_y
 _atom_site_fract_z
 _atom_site_occupancy
  Hg  Hg0  1  0.00000000  0.00000000  0.00000000  1
  N  N1  1  0.50000000  0.50000000  0.50000000  1
  Cl  Cl2  1  0.50000000  0.50000000  0.00000000  1
  Cl  Cl3  1  0.00000000  0.00000000  0.70663800  1
  Cl  Cl4  1  0.00000000  0.00000000  0.29336200  1
