# generated using pymatgen
data_YbGa3Au
_symmetry_space_group_name_H-M   'P 1'
_cell_length_a   4.06628904
_cell_length_b   4.06628906
_cell_length_c   6.47887464
_cell_angle_alpha   71.42197235
_cell_angle_beta   71.42198776
_cell_angle_gamma   89.91221096
_symmetry_Int_Tables_number   1
_chemical_formula_structural   YbGa3Au
_chemical_formula_sum   'Yb1 Ga3 Au1'
_cell_volume   95.65497635
_cell_formula_units_Z   1
loop_
 _symmetry_equiv_pos_site_id
 _symmetry_equiv_pos_as_xyz
  1  'x, y, z'
loop_
 _atom_site_type_symbol
 _atom_site_label
 _atom_site_symmetry_multiplicity
 _atom_site_fract_x
 _atom_site_fract_y
 _atom_site_fract_z
 _atom_site_occupancy
  Yb  Yb0  1  0.99747135  0.99747146  0.00509246  1
  Ga  Ga1  1  0.74729353  0.24985478  0.50260630  1
  Ga  Ga2  1  0.24985428  0.74729342  0.50260624  1
  Ga  Ga3  1  0.61022886  0.61022927  0.77970531  1
  Au  Au4  1  0.39514998  0.39515007  0.20999069  1
