# generated using pymatgen
data_BiSbTe3
_symmetry_space_group_name_H-M   'P 1'
_cell_length_a   10.93960463
_cell_length_b   10.93960463
_cell_length_c   10.93960500
_cell_angle_alpha   23.01256525
_cell_angle_beta   23.01256525
_cell_angle_gamma   23.01256526
_symmetry_Int_Tables_number   1
_chemical_formula_structural   BiSbTe3
_chemical_formula_sum   'Bi1 Sb1 Te3'
_cell_volume   175.60495542
_cell_formula_units_Z   1
loop_
 _symmetry_equiv_pos_site_id
 _symmetry_equiv_pos_as_xyz
  1  'x, y, z'
loop_
 _atom_site_type_symbol
 _atom_site_label
 _atom_site_symmetry_multiplicity
 _atom_site_fract_x
 _atom_site_fract_y
 _atom_site_fract_z
 _atom_site_occupancy
  Bi  Bi0  1  0.60363514  0.60363514  0.60363514  1
  Sb  Sb1  1  0.39674614  0.39674614  0.39674614  1
  Te  Te2  1  0.00184759  0.00184759  0.00184759  1
  Te  Te3  1  0.21573957  0.21573957  0.21573957  1
  Te  Te4  1  0.78203256  0.78203256  0.78203256  1
