# generated using pymatgen
data_CsGeBr3
_symmetry_space_group_name_H-M   'P 1'
_cell_length_a   5.66824086
_cell_length_b   5.66824086
_cell_length_c   5.66824140
_cell_angle_alpha   88.89687629
_cell_angle_beta   88.89687629
_cell_angle_gamma   88.89686456
_symmetry_Int_Tables_number   1
_chemical_formula_structural   CsGeBr3
_chemical_formula_sum   'Cs1 Ge1 Br3'
_cell_volume   182.01469343
_cell_formula_units_Z   1
loop_
 _symmetry_equiv_pos_site_id
 _symmetry_equiv_pos_as_xyz
  1  'x, y, z'
loop_
 _atom_site_type_symbol
 _atom_site_label
 _atom_site_symmetry_multiplicity
 _atom_site_fract_x
 _atom_site_fract_y
 _atom_site_fract_z
 _atom_site_occupancy
  Cs  Cs0  1  0.00130404  0.00130404  0.00130404  1
  Ge  Ge1  1  0.47708291  0.47708291  0.47708291  1
  Br  Br2  1  0.50547246  0.02866813  0.50547246  1
  Br  Br3  1  0.02866813  0.50547246  0.50547246  1
  Br  Br4  1  0.50547246  0.50547246  0.02866813  1
