# generated using pymatgen
data_AlNi3Sb
_symmetry_space_group_name_H-M   'P 1'
_cell_length_a   4.11901279
_cell_length_b   4.11901279
_cell_length_c   4.93845600
_cell_angle_alpha   90.00000000
_cell_angle_beta   90.00000000
_cell_angle_gamma   119.99111412
_symmetry_Int_Tables_number   1
_chemical_formula_structural   AlNi3Sb
_chemical_formula_sum   'Al1 Ni3 Sb1'
_cell_volume   72.56830524
_cell_formula_units_Z   1
loop_
 _symmetry_equiv_pos_site_id
 _symmetry_equiv_pos_as_xyz
  1  'x, y, z'
loop_
 _atom_site_type_symbol
 _atom_site_label
 _atom_site_symmetry_multiplicity
 _atom_site_fract_x
 _atom_site_fract_y
 _atom_site_fract_z
 _atom_site_occupancy
  Al  Al0  1  0.66668300  0.33331700  0.25000000  1
  Ni  Ni1  1  0.00000500  0.99999500  0.49426200  1
  Ni  Ni2  1  0.00000500  0.99999500  0.00573800  1
  Ni  Ni3  1  0.66667400  0.33332600  0.75000000  1
  Sb  Sb4  1  0.33333300  0.66666700  0.75000000  1
