# generated using pymatgen
data_AgClO3
_symmetry_space_group_name_H-M   'P 1'
_cell_length_a   4.32492144
_cell_length_b   4.32492144
_cell_length_c   4.32492098
_cell_angle_alpha   78.85146232
_cell_angle_beta   78.85146232
_cell_angle_gamma   78.85145527
_symmetry_Int_Tables_number   1
_chemical_formula_structural   AgClO3
_chemical_formula_sum   'Ag1 Cl1 O3'
_cell_volume   76.84405819
_cell_formula_units_Z   1
loop_
 _symmetry_equiv_pos_site_id
 _symmetry_equiv_pos_as_xyz
  1  'x, y, z'
loop_
 _atom_site_type_symbol
 _atom_site_label
 _atom_site_symmetry_multiplicity
 _atom_site_fract_x
 _atom_site_fract_y
 _atom_site_fract_z
 _atom_site_occupancy
  Ag  Ag0  1  0.02333700  0.02333700  0.02333700  1
  Cl  Cl1  1  0.50548400  0.50548400  0.50548400  1
  O  O2  1  0.86499200  0.42309300  0.42309300  1
  O  O3  1  0.42309300  0.86499200  0.42309300  1
  O  O4  1  0.42309300  0.42309300  0.86499200  1
