# generated using pymatgen
data_TlBrO3
_symmetry_space_group_name_H-M   'P 1'
_cell_length_a   3.65828800
_cell_length_b   7.07945870
_cell_length_c   4.21247490
_cell_angle_alpha   87.66755087
_cell_angle_beta   115.73572583
_cell_angle_gamma   95.37797282
_symmetry_Int_Tables_number   1
_chemical_formula_structural   TlBrO3
_chemical_formula_sum   'Tl1 Br1 O3'
_cell_volume   97.84323469
_cell_formula_units_Z   1
loop_
 _symmetry_equiv_pos_site_id
 _symmetry_equiv_pos_as_xyz
  1  'x, y, z'
loop_
 _atom_site_type_symbol
 _atom_site_label
 _atom_site_symmetry_multiplicity
 _atom_site_fract_x
 _atom_site_fract_y
 _atom_site_fract_z
 _atom_site_occupancy
  Tl  Tl0  1  0.88902100  0.00661200  0.00000000  1
  Br  Br1  1  0.24361000  0.55747900  0.00000000  1
  O  O2  1  0.36622100  0.81957000  0.00000000  1
  O  O3  1  0.23317000  0.18516900  0.45719200  1
  O  O4  1  0.77597800  0.18516900  0.54280800  1
