# generated using pymatgen
data_AgBrO3
_symmetry_space_group_name_H-M   'P 1'
_cell_length_a   4.30379165
_cell_length_b   4.30379165
_cell_length_c   4.30379286
_cell_angle_alpha   81.38578014
_cell_angle_beta   81.38578014
_cell_angle_gamma   81.38577940
_symmetry_Int_Tables_number   1
_chemical_formula_structural   AgBrO3
_chemical_formula_sum   'Ag1 Br1 O3'
_cell_volume   77.26506831
_cell_formula_units_Z   1
loop_
 _symmetry_equiv_pos_site_id
 _symmetry_equiv_pos_as_xyz
  1  'x, y, z'
loop_
 _atom_site_type_symbol
 _atom_site_label
 _atom_site_symmetry_multiplicity
 _atom_site_fract_x
 _atom_site_fract_y
 _atom_site_fract_z
 _atom_site_occupancy
  Ag  Ag0  1  0.95935487  0.95935487  0.95935487  1
  Br  Br1  1  0.49304538  0.49304538  0.49304538  1
  O  O2  1  0.56759175  0.09718125  0.56759175  1
  O  O3  1  0.09718125  0.56759175  0.56759175  1
  O  O4  1  0.56759175  0.56759175  0.09718125  1
