# generated using pymatgen
data_SmSi3Rh
_symmetry_space_group_name_H-M   'P 1'
_cell_length_a   5.72216826
_cell_length_b   5.72216826
_cell_length_c   5.72216826
_cell_angle_alpha   136.96420619
_cell_angle_beta   136.96420619
_cell_angle_gamma   62.49312768
_symmetry_Int_Tables_number   1
_chemical_formula_structural   SmSi3Rh
_chemical_formula_sum   'Sm1 Si3 Rh1'
_cell_volume   86.20219627
_cell_formula_units_Z   1
loop_
 _symmetry_equiv_pos_site_id
 _symmetry_equiv_pos_as_xyz
  1  'x, y, z'
loop_
 _atom_site_type_symbol
 _atom_site_label
 _atom_site_symmetry_multiplicity
 _atom_site_fract_x
 _atom_site_fract_y
 _atom_site_fract_z
 _atom_site_occupancy
  Sm  Sm0  1  0.99910428  0.99910428  0.00000000  1
  Si  Si1  1  0.41415363  0.41415363  0.00000000  1
  Si  Si2  1  0.26351754  0.76351754  0.50000000  1
  Si  Si3  1  0.76351754  0.26351754  0.50000000  1
  Rh  Rh4  1  0.65370900  0.65370900  -0.00000000  1
