# generated using pymatgen
data_SrIn3Hg
_symmetry_space_group_name_H-M   'P 1'
_cell_length_a   7.13779448
_cell_length_b   7.13779448
_cell_length_c   7.13779448
_cell_angle_alpha   141.40889786
_cell_angle_beta   141.40889786
_cell_angle_gamma   55.72020475
_symmetry_Int_Tables_number   1
_chemical_formula_structural   SrIn3Hg
_chemical_formula_sum   'Sr1 In3 Hg1'
_cell_volume   140.42270703
_cell_formula_units_Z   1
loop_
 _symmetry_equiv_pos_site_id
 _symmetry_equiv_pos_as_xyz
  1  'x, y, z'
loop_
 _atom_site_type_symbol
 _atom_site_label
 _atom_site_symmetry_multiplicity
 _atom_site_fract_x
 _atom_site_fract_y
 _atom_site_fract_z
 _atom_site_occupancy
  Sr  Sr0  1  0.00655681  0.00655681  0.00000000  1
  In  In1  1  0.74753634  0.24753634  0.50000000  1
  In  In2  1  0.24753634  0.74753634  0.50000000  1
  In  In3  1  0.38987805  0.38987805  -0.00000000  1
  Hg  Hg4  1  0.60849347  0.60849347  -0.00000000  1
