# generated using pymatgen
data_TlIO3
_symmetry_space_group_name_H-M   'P 1'
_cell_length_a   4.50421865
_cell_length_b   4.50421874
_cell_length_c   4.50421841
_cell_angle_alpha   88.77705877
_cell_angle_beta   88.77706451
_cell_angle_gamma   88.77707260
_symmetry_Int_Tables_number   1
_chemical_formula_structural   TlIO3
_chemical_formula_sum   'Tl1 I1 O3'
_cell_volume   91.31995052
_cell_formula_units_Z   1
loop_
 _symmetry_equiv_pos_site_id
 _symmetry_equiv_pos_as_xyz
  1  'x, y, z'
loop_
 _atom_site_type_symbol
 _atom_site_label
 _atom_site_symmetry_multiplicity
 _atom_site_fract_x
 _atom_site_fract_y
 _atom_site_fract_z
 _atom_site_occupancy
  Tl  Tl0  1  0.99124915  0.99124915  0.99124915  1
  I  I1  1  0.49813267  0.49813267  0.49813267  1
  O  O2  1  0.53810291  0.09671235  0.53810291  1
  O  O3  1  0.09671235  0.53810291  0.53810291  1
  O  O4  1  0.53810291  0.53810291  0.09671235  1
