# generated using pymatgen
data_TlBrO3
_symmetry_space_group_name_H-M   'P 1'
_cell_length_a   4.45421976
_cell_length_b   4.45422048
_cell_length_c   4.45421980
_cell_angle_alpha   86.79052411
_cell_angle_beta   86.79052889
_cell_angle_gamma   86.79052197
_symmetry_Int_Tables_number   1
_chemical_formula_structural   TlBrO3
_chemical_formula_sum   'Tl1 Br1 O3'
_cell_volume   87.97115887
_cell_formula_units_Z   1
loop_
 _symmetry_equiv_pos_site_id
 _symmetry_equiv_pos_as_xyz
  1  'x, y, z'
loop_
 _atom_site_type_symbol
 _atom_site_label
 _atom_site_symmetry_multiplicity
 _atom_site_fract_x
 _atom_site_fract_y
 _atom_site_fract_z
 _atom_site_occupancy
  Tl  Tl0  1  0.01007762  0.01007762  0.01007762  1
  Br  Br1  1  0.50000099  0.50000099  0.50000099  1
  O  O2  1  0.12718015  0.55837112  0.55837112  1
  O  O3  1  0.55837112  0.55837112  0.12718015  1
  O  O4  1  0.55837112  0.12718015  0.55837112  1
