# generated using pymatgen
data_VCuO3
_symmetry_space_group_name_H-M   'P 1'
_cell_length_a   3.22238100
_cell_length_b   5.01025447
_cell_length_c   5.53257466
_cell_angle_alpha   111.11934690
_cell_angle_beta   105.33184345
_cell_angle_gamma   89.10338146
_symmetry_Int_Tables_number   1
_chemical_formula_structural   VCuO3
_chemical_formula_sum   'V1 Cu1 O3'
_cell_volume   80.04269881
_cell_formula_units_Z   1
loop_
 _symmetry_equiv_pos_site_id
 _symmetry_equiv_pos_as_xyz
  1  'x, y, z'
loop_
 _atom_site_type_symbol
 _atom_site_label
 _atom_site_symmetry_multiplicity
 _atom_site_fract_x
 _atom_site_fract_y
 _atom_site_fract_z
 _atom_site_occupancy
  V  V0  1  0.74460800  0.34456000  0.13666600  1
  Cu  Cu1  1  0.37682000  0.95694000  0.44152600  1
  O  O2  1  0.79957300  0.06312200  0.24610300  1
  O  O3  1  0.59390500  0.21172700  0.79782800  1
  O  O4  1  0.29369400  0.53795100  0.25577700  1
