# generated using pymatgen
data_BaTiO3
_symmetry_space_group_name_H-M   'P 1'
_cell_length_a   4.03380655
_cell_length_b   4.03380589
_cell_length_c   4.03380615
_cell_angle_alpha   89.83638280
_cell_angle_beta   89.83636958
_cell_angle_gamma   89.83638730
_symmetry_Int_Tables_number   1
_chemical_formula_structural   BaTiO3
_chemical_formula_sum   'Ba1 Ti1 O3'
_cell_volume   65.63564907
_cell_formula_units_Z   1
loop_
 _symmetry_equiv_pos_site_id
 _symmetry_equiv_pos_as_xyz
  1  'x, y, z'
loop_
 _atom_site_type_symbol
 _atom_site_label
 _atom_site_symmetry_multiplicity
 _atom_site_fract_x
 _atom_site_fract_y
 _atom_site_fract_z
 _atom_site_occupancy
  Ba  Ba0  1  0.99985396  0.99985396  0.99985396  1
  Ti  Ti1  1  0.48666229  0.48666229  0.48666229  1
  O  O2  1  0.02028337  0.51104969  0.51104969  1
  O  O3  1  0.51104969  0.51104969  0.02028337  1
  O  O4  1  0.51104969  0.02028337  0.51104969  1
