# generated using pymatgen
data_KNO3
_symmetry_space_group_name_H-M   'P 1'
_cell_length_a   4.28141021
_cell_length_b   4.28140979
_cell_length_c   4.28140973
_cell_angle_alpha   78.95475928
_cell_angle_beta   78.95478238
_cell_angle_gamma   78.95476202
_symmetry_Int_Tables_number   1
_chemical_formula_structural   KNO3
_chemical_formula_sum   'K1 N1 O3'
_cell_volume   74.61614758
_cell_formula_units_Z   1
loop_
 _symmetry_equiv_pos_site_id
 _symmetry_equiv_pos_as_xyz
  1  'x, y, z'
loop_
 _atom_site_type_symbol
 _atom_site_label
 _atom_site_symmetry_multiplicity
 _atom_site_fract_x
 _atom_site_fract_y
 _atom_site_fract_z
 _atom_site_occupancy
  K  K0  1  0.00062882  0.00062882  0.00062882  1
  N  N1  1  0.43453625  0.43453625  0.43453625  1
  O  O2  1  0.56666352  0.16550589  0.56666352  1
  O  O3  1  0.56666352  0.56666352  0.16550589  1
  O  O4  1  0.16550589  0.56666352  0.56666352  1
