# generated using pymatgen
data_FeBiO3
_symmetry_space_group_name_H-M   'P 1'
_cell_length_a   5.42775896
_cell_length_b   5.42775896
_cell_length_c   5.42775797
_cell_angle_alpha   66.29821601
_cell_angle_beta   66.29821601
_cell_angle_gamma   66.29821889
_symmetry_Int_Tables_number   1
_chemical_formula_structural   FeBiO3
_chemical_formula_sum   'Fe1 Bi1 O3'
_cell_volume   128.43770899
_cell_formula_units_Z   1
loop_
 _symmetry_equiv_pos_site_id
 _symmetry_equiv_pos_as_xyz
  1  'x, y, z'
loop_
 _atom_site_type_symbol
 _atom_site_label
 _atom_site_symmetry_multiplicity
 _atom_site_fract_x
 _atom_site_fract_y
 _atom_site_fract_z
 _atom_site_occupancy
  Fe  Fe0  1  0.27447400  0.27447400  0.27447400  1
  Bi  Bi1  1  0.01976500  0.01976500  0.01976500  1
  O  O2  1  0.21091500  0.00364600  0.60519900  1
  O  O3  1  0.00364600  0.60519900  0.21091500  1
  O  O4  1  0.60519900  0.21091500  0.00364600  1
