# generated using pymatgen
data_CaSnS3
_symmetry_space_group_name_H-M   'P 1'
_cell_length_a   5.70338910
_cell_length_b   5.70338910
_cell_length_c   4.12008000
_cell_angle_alpha   90.00000000
_cell_angle_beta   90.00000000
_cell_angle_gamma   100.96746350
_symmetry_Int_Tables_number   1
_chemical_formula_structural   CaSnS3
_chemical_formula_sum   'Ca1 Sn1 S3'
_cell_volume   131.57279279
_cell_formula_units_Z   1
loop_
 _symmetry_equiv_pos_site_id
 _symmetry_equiv_pos_as_xyz
  1  'x, y, z'
loop_
 _atom_site_type_symbol
 _atom_site_label
 _atom_site_symmetry_multiplicity
 _atom_site_fract_x
 _atom_site_fract_y
 _atom_site_fract_z
 _atom_site_occupancy
  Ca  Ca0  1  0.74387400  0.25612600  0.00000000  1
  Sn  Sn1  1  0.10825500  0.89174500  0.50000000  1
  S  S2  1  0.53620700  0.46379300  0.50000000  1
  S  S3  1  0.55730800  0.92564500  0.50000000  1
  S  S4  1  0.07435500  0.44269200  0.50000000  1
