# generated using pymatgen
data_SrMgIn3
_symmetry_space_group_name_H-M   'P 1'
_cell_length_a   4.70625900
_cell_length_b   4.70625900
_cell_length_c   7.17731875
_cell_angle_alpha   109.13872020
_cell_angle_beta   109.13872020
_cell_angle_gamma   90.00000000
_symmetry_Int_Tables_number   1
_chemical_formula_structural   SrMgIn3
_chemical_formula_sum   'Sr1 Mg1 In3'
_cell_volume   140.84918456
_cell_formula_units_Z   1
loop_
 _symmetry_equiv_pos_site_id
 _symmetry_equiv_pos_as_xyz
  1  'x, y, z'
loop_
 _atom_site_type_symbol
 _atom_site_label
 _atom_site_symmetry_multiplicity
 _atom_site_fract_x
 _atom_site_fract_y
 _atom_site_fract_z
 _atom_site_occupancy
  In  In0  1  0.61082219  0.61082219  0.22164413  1
  In  In1  1  0.24999994  0.75000004  0.49999976  1
  In  In2  1  0.38917778  0.38917778  0.77835540  1
  Mg  Mg3  1  0.75000004  0.24999994  0.49999976  1
  Sr  Sr4  1  0.00000000  0.00000000  0.00000000  1
