# generated using pymatgen
data_NdAlO3
_symmetry_space_group_name_H-M   'P 1'
_cell_length_a   3.74023926
_cell_length_b   3.74023938
_cell_length_c   3.74023904
_cell_angle_alpha   90.14437900
_cell_angle_beta   90.14438040
_cell_angle_gamma   90.14436084
_symmetry_Int_Tables_number   1
_chemical_formula_structural   NdAlO3
_chemical_formula_sum   'Nd1 Al1 O3'
_cell_volume   52.32316403
_cell_formula_units_Z   1
loop_
 _symmetry_equiv_pos_site_id
 _symmetry_equiv_pos_as_xyz
  1  'x, y, z'
loop_
 _atom_site_type_symbol
 _atom_site_label
 _atom_site_symmetry_multiplicity
 _atom_site_fract_x
 _atom_site_fract_y
 _atom_site_fract_z
 _atom_site_occupancy
  Al  Al0  1  0.00000000  0.00000000  0.00000000  1
  Nd  Nd1  1  0.50000044  0.49999900  0.50000088  1
  O  O2  1  0.50000032  0.99999949  0.99999894  1
  O  O3  1  1.00000065  0.50000031  0.00000197  1
  O  O4  1  0.00000069  0.00000064  0.50000018  1
