# generated using pymatgen
data_BaFeO3
_symmetry_space_group_name_H-M   'P 1'
_cell_length_a   3.96201457
_cell_length_b   3.96201397
_cell_length_c   3.96201426
_cell_angle_alpha   89.97778799
_cell_angle_beta   89.97779634
_cell_angle_gamma   89.97778777
_symmetry_Int_Tables_number   1
_chemical_formula_structural   BaFeO3
_chemical_formula_sum   'Ba1 Fe1 O3'
_cell_volume   62.19393099
_cell_formula_units_Z   1
loop_
 _symmetry_equiv_pos_site_id
 _symmetry_equiv_pos_as_xyz
  1  'x, y, z'
loop_
 _atom_site_type_symbol
 _atom_site_label
 _atom_site_symmetry_multiplicity
 _atom_site_fract_x
 _atom_site_fract_y
 _atom_site_fract_z
 _atom_site_occupancy
  Ba  Ba0  1  0.00000000  0.00000000  0.00000000  1
  Fe  Fe1  1  0.49999898  0.50000113  0.50000114  1
  O  O2  1  0.49999912  0.49999924  0.00000025  1
  O  O3  1  1.00000076  0.50000026  0.50000000  1
  O  O4  1  0.49999911  0.00000101  0.49999975  1
