# generated using pymatgen
data_CaSi3Ir
_symmetry_space_group_name_H-M   'P 1'
_cell_length_a   4.20967100
_cell_length_b   4.20967100
_cell_length_c   5.79142313
_cell_angle_alpha   111.31161102
_cell_angle_beta   111.31161102
_cell_angle_gamma   90.00000000
_symmetry_Int_Tables_number   1
_chemical_formula_structural   CaSi3Ir
_chemical_formula_sum   'Ca1 Si3 Ir1'
_cell_volume   88.03760002
_cell_formula_units_Z   1
loop_
 _symmetry_equiv_pos_site_id
 _symmetry_equiv_pos_as_xyz
  1  'x, y, z'
loop_
 _atom_site_type_symbol
 _atom_site_label
 _atom_site_symmetry_multiplicity
 _atom_site_fract_x
 _atom_site_fract_y
 _atom_site_fract_z
 _atom_site_occupancy
  Ca  Ca0  1  0.99989135  0.99989135  0.99978079  1
  Ir  Ir1  1  0.64653712  0.64653712  0.29307217  1
  Si  Si2  1  0.75932544  0.25932437  0.51864887  1
  Si  Si3  1  0.25932437  0.75932544  0.51864887  1
  Si  Si4  1  0.40905594  0.40905594  0.81811208  1
