# generated using pymatgen
data_SrGe3Pd
_symmetry_space_group_name_H-M   'P 1'
_cell_length_a   4.51377600
_cell_length_b   4.51377600
_cell_length_c   6.09000370
_cell_angle_alpha   111.75194317
_cell_angle_beta   111.75194317
_cell_angle_gamma   90.00000000
_symmetry_Int_Tables_number   1
_chemical_formula_structural   SrGe3Pd
_chemical_formula_sum   'Sr1 Ge3 Pd1'
_cell_volume   105.67315832
_cell_formula_units_Z   1
loop_
 _symmetry_equiv_pos_site_id
 _symmetry_equiv_pos_as_xyz
  1  'x, y, z'
loop_
 _atom_site_type_symbol
 _atom_site_label
 _atom_site_symmetry_multiplicity
 _atom_site_fract_x
 _atom_site_fract_y
 _atom_site_fract_z
 _atom_site_occupancy
  Ge  Ge0  1  0.75345823  0.25345779  0.50691558  1
  Ge  Ge1  1  0.25345779  0.75345823  0.50691558  1
  Ge  Ge2  1  0.39936101  0.39936101  0.79872202  1
  Pd  Pd3  1  0.64154437  0.64154437  0.28308786  1
  Sr  Sr4  1  0.99987869  0.99987869  0.99975649  1
