# generated using pymatgen
data_BaTiO3
_symmetry_space_group_name_H-M   'P 1'
_cell_length_a   4.01589646
_cell_length_b   4.01589650
_cell_length_c   4.01589648
_cell_angle_alpha   89.87767931
_cell_angle_beta   89.87767734
_cell_angle_gamma   89.87768028
_symmetry_Int_Tables_number   1
_chemical_formula_structural   BaTiO3
_chemical_formula_sum   'Ba1 Ti1 O3'
_cell_volume   64.76562524
_cell_formula_units_Z   1
loop_
 _symmetry_equiv_pos_site_id
 _symmetry_equiv_pos_as_xyz
  1  'x, y, z'
loop_
 _atom_site_type_symbol
 _atom_site_label
 _atom_site_symmetry_multiplicity
 _atom_site_fract_x
 _atom_site_fract_y
 _atom_site_fract_z
 _atom_site_occupancy
  Ba  Ba0  1  0.00000991  0.00000994  0.00000997  1
  O  O1  1  0.51139460  0.51139401  0.01559632  1
  O  O2  1  0.51139460  0.01559560  0.51139391  1
  O  O3  1  0.01559670  0.51139372  0.51139391  1
  Ti  Ti4  1  0.48990598  0.48990553  0.48990473  1
