# generated using pymatgen
data_KIO3
_symmetry_space_group_name_H-M   'P 1'
_cell_length_a   4.38592504
_cell_length_b   4.38592504
_cell_length_c   4.38592502
_cell_angle_alpha   90.78204318
_cell_angle_beta   89.21795682
_cell_angle_gamma   90.78204263
_symmetry_Int_Tables_number   1
_chemical_formula_structural   KIO3
_chemical_formula_sum   'K1 I1 O3'
_cell_volume   84.34577370
_cell_formula_units_Z   1
loop_
 _symmetry_equiv_pos_site_id
 _symmetry_equiv_pos_as_xyz
  1  'x, y, z'
loop_
 _atom_site_type_symbol
 _atom_site_label
 _atom_site_symmetry_multiplicity
 _atom_site_fract_x
 _atom_site_fract_y
 _atom_site_fract_z
 _atom_site_occupancy
  I  I0  1  0.51043837  0.48956163  0.51043696  1
  K  K1  1  0.00945599  0.99054401  0.00945458  1
  O  O2  1  0.54619078  0.45380922  0.09262597  1
  O  O3  1  0.09262461  0.45380925  0.54619219  1
  O  O4  1  0.54618912  0.90737377  0.54619219  1
