# generated using pymatgen
data_CsBrO3
_symmetry_space_group_name_H-M   'P 1'
_cell_length_a   4.59269697
_cell_length_b   4.59269670
_cell_length_c   4.59269607
_cell_angle_alpha   89.02406258
_cell_angle_beta   89.02405520
_cell_angle_gamma   89.02406351
_symmetry_Int_Tables_number   1
_chemical_formula_structural   CsBrO3
_chemical_formula_sum   'Cs1 Br1 O3'
_cell_volume   96.83142886
_cell_formula_units_Z   1
loop_
 _symmetry_equiv_pos_site_id
 _symmetry_equiv_pos_as_xyz
  1  'x, y, z'
loop_
 _atom_site_type_symbol
 _atom_site_label
 _atom_site_symmetry_multiplicity
 _atom_site_fract_x
 _atom_site_fract_y
 _atom_site_fract_z
 _atom_site_occupancy
  Br  Br0  1  0.47082658  0.47082671  0.47082621  1
  Cs  Cs1  1  0.00066021  0.00065978  0.00066091  1
  O  O2  1  0.52392730  0.52392824  0.10972775  1
  O  O3  1  0.52392729  0.10972780  0.52392853  1
  O  O4  1  0.10972800  0.52392733  0.52392853  1
