# generated using pymatgen
data_RbBrO3
_symmetry_space_group_name_H-M   'P 1'
_cell_length_a   4.43022800
_cell_length_b   4.43022791
_cell_length_c   4.43022813
_cell_angle_alpha   87.61678864
_cell_angle_beta   87.61680026
_cell_angle_gamma   87.61679807
_symmetry_Int_Tables_number   1
_chemical_formula_structural   RbBrO3
_chemical_formula_sum   'Rb1 Br1 O3'
_cell_volume   86.73218087
_cell_formula_units_Z   1
loop_
 _symmetry_equiv_pos_site_id
 _symmetry_equiv_pos_as_xyz
  1  'x, y, z'
loop_
 _atom_site_type_symbol
 _atom_site_label
 _atom_site_symmetry_multiplicity
 _atom_site_fract_x
 _atom_site_fract_y
 _atom_site_fract_z
 _atom_site_occupancy
  Br  Br0  1  0.47423234  0.47423293  0.47423208  1
  O  O1  1  0.53159066  0.53159028  0.09760903  1
  O  O2  1  0.53159078  0.09760702  0.53158948  1
  O  O3  1  0.09760898  0.53158977  0.53158948  1
  Rb  Rb4  1  0.00093998  0.00093850  0.00093829  1
