# generated using pymatgen
data_CeSi3Ru
_symmetry_space_group_name_H-M   'P 1'
_cell_length_a   4.26938100
_cell_length_b   4.26938100
_cell_length_c   5.83764812
_cell_angle_alpha   111.44921388
_cell_angle_beta   111.44921388
_cell_angle_gamma   90.00000000
_symmetry_Int_Tables_number   1
_chemical_formula_structural   CeSi3Ru
_chemical_formula_sum   'Ce1 Si3 Ru1'
_cell_volume   91.07303449
_cell_formula_units_Z   1
loop_
 _symmetry_equiv_pos_site_id
 _symmetry_equiv_pos_as_xyz
  1  'x, y, z'
loop_
 _atom_site_type_symbol
 _atom_site_label
 _atom_site_symmetry_multiplicity
 _atom_site_fract_x
 _atom_site_fract_y
 _atom_site_fract_z
 _atom_site_occupancy
  Ce  Ce0  1  0.57903927  0.57903927  0.15807881  1
  Ru  Ru1  1  0.23583424  0.23583424  0.47166858  1
  Si  Si2  1  0.84077198  0.34077210  0.68154435  1
  Si  Si3  1  0.34077210  0.84077198  0.68154435  1
  Si  Si4  1  0.99864160  0.99864160  0.99728366  1
