# generated using pymatgen
data_BaTiO3
_symmetry_space_group_name_H-M   'P 1'
_cell_length_a   3.99487500
_cell_length_b   4.02175615
_cell_length_c   4.02175615
_cell_angle_alpha   90.11949505
_cell_angle_beta   90.00000000
_cell_angle_gamma   90.00000000
_symmetry_Int_Tables_number   1
_chemical_formula_structural   BaTiO3
_chemical_formula_sum   'Ba1 Ti1 O3'
_cell_volume   64.61505518
_cell_formula_units_Z   1
loop_
 _symmetry_equiv_pos_site_id
 _symmetry_equiv_pos_as_xyz
  1  'x, y, z'
loop_
 _atom_site_type_symbol
 _atom_site_label
 _atom_site_symmetry_multiplicity
 _atom_site_fract_x
 _atom_site_fract_y
 _atom_site_fract_z
 _atom_site_occupancy
  Ba  Ba0  1  0.00000000  0.00005111  0.99994748  1
  O  O1  1  0.00000000  0.51013884  0.48985975  1
  O  O2  1  0.50000063  0.01575804  0.48992618  1
  O  O3  1  0.50000063  0.51007417  0.98424231  1
  Ti  Ti4  1  0.50000063  0.48997567  0.51002292  1
