# generated using pymatgen
data_CeGe3Rh
_symmetry_space_group_name_H-M   'P 1'
_cell_length_a   4.45250300
_cell_length_b   4.45250300
_cell_length_c   5.97505432
_cell_angle_alpha   111.87549516
_cell_angle_beta   111.87549516
_cell_angle_gamma   90.00000000
_symmetry_Int_Tables_number   1
_chemical_formula_structural   CeGe3Rh
_chemical_formula_sum   'Ce1 Ge3 Rh1'
_cell_volume   100.67571954
_cell_formula_units_Z   1
loop_
 _symmetry_equiv_pos_site_id
 _symmetry_equiv_pos_as_xyz
  1  'x, y, z'
loop_
 _atom_site_type_symbol
 _atom_site_label
 _atom_site_symmetry_multiplicity
 _atom_site_fract_x
 _atom_site_fract_y
 _atom_site_fract_z
 _atom_site_occupancy
  Ce  Ce0  1  0.42025670  0.42025670  0.84051359  1
  Ge  Ge1  1  0.00021464  0.00021464  0.00042928  1
  Ge  Ge2  1  0.65822065  0.15822098  0.31644204  1
  Ge  Ge3  1  0.15822098  0.65822065  0.31644204  1
  Rh  Rh4  1  0.76188769  0.76188769  0.52377618  1
