# generated using pymatgen
data_TlIO3
_symmetry_space_group_name_H-M   'P 1'
_cell_length_a   4.46617555
_cell_length_b   4.46617598
_cell_length_c   4.46617555
_cell_angle_alpha   90.71017967
_cell_angle_beta   90.71015945
_cell_angle_gamma   89.28982033
_symmetry_Int_Tables_number   1
_chemical_formula_structural   TlIO3
_chemical_formula_sum   'Tl1 I1 O3'
_cell_volume   89.06521836
_cell_formula_units_Z   1
loop_
 _symmetry_equiv_pos_site_id
 _symmetry_equiv_pos_as_xyz
  1  'x, y, z'
loop_
 _atom_site_type_symbol
 _atom_site_label
 _atom_site_symmetry_multiplicity
 _atom_site_fract_x
 _atom_site_fract_y
 _atom_site_fract_z
 _atom_site_occupancy
  I  I0  1  0.50062261  0.50062167  0.49937707  1
  O  O1  1  0.46294281  0.46294251  0.08923438  1
  O  O2  1  0.91076530  0.46294251  0.53705687  1
  O  O3  1  0.46294260  0.91076543  0.53705708  1
  Tl  Tl4  1  0.00042816  0.00042749  0.99957152  1
