# generated using pymatgen
data_BaSi3Pd
_symmetry_space_group_name_H-M   'P 1'
_cell_length_a   4.42498600
_cell_length_b   4.42498600
_cell_length_c   6.00358765
_cell_angle_alpha   111.62489312
_cell_angle_beta   111.62489312
_cell_angle_gamma   90.00000000
_symmetry_Int_Tables_number   1
_chemical_formula_structural   BaSi3Pd
_chemical_formula_sum   'Ba1 Si3 Pd1'
_cell_volume   100.32559251
_cell_formula_units_Z   1
loop_
 _symmetry_equiv_pos_site_id
 _symmetry_equiv_pos_as_xyz
  1  'x, y, z'
loop_
 _atom_site_type_symbol
 _atom_site_label
 _atom_site_symmetry_multiplicity
 _atom_site_fract_x
 _atom_site_fract_y
 _atom_site_fract_z
 _atom_site_occupancy
  Ba  Ba0  1  0.61558751  0.61558751  0.23117638  1
  Pd  Pd1  1  0.26036985  0.26036985  0.52073969  1
  Si  Si2  1  0.00055135  0.00055135  0.00110271  1
  Si  Si3  1  0.87009447  0.37009515  0.74019029  1
  Si  Si4  1  0.37009515  0.87009447  0.74019029  1
