# generated using pymatgen
data_TlIO3
_symmetry_space_group_name_H-M   'P 1'
_cell_length_a   4.20963483
_cell_length_b   4.20963472
_cell_length_c   4.20963404
_cell_angle_alpha   89.91247283
_cell_angle_beta   89.91248356
_cell_angle_gamma   89.91247509
_symmetry_Int_Tables_number   1
_chemical_formula_structural   TlIO3
_chemical_formula_sum   'Tl1 I1 O3'
_cell_volume   74.59876903
_cell_formula_units_Z   1
loop_
 _symmetry_equiv_pos_site_id
 _symmetry_equiv_pos_as_xyz
  1  'x, y, z'
loop_
 _atom_site_type_symbol
 _atom_site_label
 _atom_site_symmetry_multiplicity
 _atom_site_fract_x
 _atom_site_fract_y
 _atom_site_fract_z
 _atom_site_occupancy
  I  I0  1  0.49999870  0.50000036  0.49999904  1
  O  O1  1  0.49999953  0.49999916  1.00000047  1
  O  O2  1  0.49999954  0.99999845  0.50000022  1
  O  O3  1  0.00000165  0.50000167  0.50000026  1
  Tl  Tl4  1  0.00000000  0.00000000  0.00000000  1
