# generated using pymatgen
data_PrBPt3
_symmetry_space_group_name_H-M   'P 1'
_cell_length_a   4.06114500
_cell_length_b   4.06114500
_cell_length_c   5.09643900
_cell_angle_alpha   90.00000000
_cell_angle_beta   90.00000000
_cell_angle_gamma   90.00000000
_symmetry_Int_Tables_number   1
_chemical_formula_structural   PrBPt3
_chemical_formula_sum   'Pr1 B1 Pt3'
_cell_volume   84.05505221
_cell_formula_units_Z   1
loop_
 _symmetry_equiv_pos_site_id
 _symmetry_equiv_pos_as_xyz
  1  'x, y, z'
loop_
 _atom_site_type_symbol
 _atom_site_label
 _atom_site_symmetry_multiplicity
 _atom_site_fract_x
 _atom_site_fract_y
 _atom_site_fract_z
 _atom_site_occupancy
  B  B0  1  0.50000185  0.50000185  0.68401682  1
  Pr  Pr1  1  0.00000000  0.00000000  0.98910239  1
  Pt  Pt2  1  0.50000185  0.50000185  0.09711487  1
  Pt  Pt3  1  0.50000185  0.00000000  0.50118328  1
  Pt  Pt4  1  0.00000000  0.50000185  0.50118328  1
