# generated using pymatgen
data_CaSi3Pt
_symmetry_space_group_name_H-M   'P 1'
_cell_length_a   4.25392500
_cell_length_b   4.25392500
_cell_length_c   5.77628903
_cell_angle_alpha   111.60607236
_cell_angle_beta   111.60607236
_cell_angle_gamma   90.00000000
_symmetry_Int_Tables_number   1
_chemical_formula_structural   CaSi3Pt
_chemical_formula_sum   'Ca1 Si3 Pt1'
_cell_volume   89.23593128
_cell_formula_units_Z   1
loop_
 _symmetry_equiv_pos_site_id
 _symmetry_equiv_pos_as_xyz
  1  'x, y, z'
loop_
 _atom_site_type_symbol
 _atom_site_label
 _atom_site_symmetry_multiplicity
 _atom_site_fract_x
 _atom_site_fract_y
 _atom_site_fract_z
 _atom_site_occupancy
  Ca  Ca0  1  0.99957013  0.99957013  0.99914120  1
  Pt  Pt1  1  0.63992849  0.63992849  0.27985809  1
  Si  Si2  1  0.75832362  0.25832421  0.51664830  1
  Si  Si3  1  0.25832421  0.75832362  0.51664830  1
  Si  Si4  1  0.39765202  0.39765202  0.79530386  1
