# generated using pymatgen
data_LaFeGe3
_symmetry_space_group_name_H-M   'P 1'
_cell_length_a   4.35379400
_cell_length_b   4.35379400
_cell_length_c   5.85093080
_cell_angle_alpha   111.84271574
_cell_angle_beta   111.84271574
_cell_angle_gamma   90.00000000
_symmetry_Int_Tables_number   1
_chemical_formula_structural   LaFeGe3
_chemical_formula_sum   'La1 Fe1 Ge3'
_cell_volume   94.31325754
_cell_formula_units_Z   1
loop_
 _symmetry_equiv_pos_site_id
 _symmetry_equiv_pos_as_xyz
  1  'x, y, z'
loop_
 _atom_site_type_symbol
 _atom_site_label
 _atom_site_symmetry_multiplicity
 _atom_site_fract_x
 _atom_site_fract_y
 _atom_site_fract_z
 _atom_site_occupancy
  Fe  Fe0  1  0.66373388  0.66373388  0.32746639  1
  Ge  Ge1  1  0.75593964  0.25593895  0.51187789  1
  Ge  Ge2  1  0.25593895  0.75593964  0.51187789  1
  Ge  Ge3  1  0.43470278  0.43470278  0.86940557  1
  La  La4  1  0.00007537  0.00007537  0.00015074  1
