# generated using pymatgen
data_BaSn3Pd
_symmetry_space_group_name_H-M   'P 1'
_cell_length_a   4.93879600
_cell_length_b   4.93879600
_cell_length_c   6.64942043
_cell_angle_alpha   111.80015894
_cell_angle_beta   111.80015894
_cell_angle_gamma   90.00000000
_symmetry_Int_Tables_number   1
_chemical_formula_structural   BaSn3Pd
_chemical_formula_sum   'Ba1 Sn3 Pd1'
_cell_volume   138.02115097
_cell_formula_units_Z   1
loop_
 _symmetry_equiv_pos_site_id
 _symmetry_equiv_pos_as_xyz
  1  'x, y, z'
loop_
 _atom_site_type_symbol
 _atom_site_label
 _atom_site_symmetry_multiplicity
 _atom_site_fract_x
 _atom_site_fract_y
 _atom_site_fract_z
 _atom_site_occupancy
  Ba  Ba0  1  0.99995640  0.99995640  0.99991199  1
  Pd  Pd1  1  0.35115228  0.35115228  0.70230456  1
  Sn  Sn2  1  0.58700271  0.58700271  0.17400462  1
  Sn  Sn3  1  0.74994527  0.24994486  0.49988972  1
  Sn  Sn4  1  0.24994486  0.74994527  0.49988972  1
