# generated using pymatgen
data_CeGe3Ir
_symmetry_space_group_name_H-M   'P 1'
_cell_length_a   4.46533600
_cell_length_b   4.46533600
_cell_length_c   5.97595893
_cell_angle_alpha   111.93832487
_cell_angle_beta   111.93832487
_cell_angle_gamma   90.00000000
_symmetry_Int_Tables_number   1
_chemical_formula_structural   CeGe3Ir
_chemical_formula_sum   'Ce1 Ge3 Ir1'
_cell_volume   101.16572865
_cell_formula_units_Z   1
loop_
 _symmetry_equiv_pos_site_id
 _symmetry_equiv_pos_as_xyz
  1  'x, y, z'
loop_
 _atom_site_type_symbol
 _atom_site_label
 _atom_site_symmetry_multiplicity
 _atom_site_fract_x
 _atom_site_fract_y
 _atom_site_fract_z
 _atom_site_occupancy
  Ce  Ce0  1  0.58021206  0.58021206  0.16042323  1
  Ge  Ge1  1  0.00040897  0.00040897  0.00081794  1
  Ge  Ge2  1  0.84326446  0.34326401  0.68652803  1
  Ge  Ge3  1  0.34326401  0.84326446  0.68652803  1
  Ir  Ir4  1  0.23852199  0.23852199  0.47704399  1
