# generated using pymatgen
data_CsGeBr3
_symmetry_space_group_name_H-M   'P 1'
_cell_length_a   5.71114605
_cell_length_b   5.71114465
_cell_length_c   5.71114523
_cell_angle_alpha   88.84882631
_cell_angle_beta   88.84883418
_cell_angle_gamma   88.84882886
_symmetry_Int_Tables_number   1
_chemical_formula_structural   CsGeBr3
_chemical_formula_sum   'Cs1 Ge1 Br3'
_cell_volume   186.17015484
_cell_formula_units_Z   1
loop_
 _symmetry_equiv_pos_site_id
 _symmetry_equiv_pos_as_xyz
  1  'x, y, z'
loop_
 _atom_site_type_symbol
 _atom_site_label
 _atom_site_symmetry_multiplicity
 _atom_site_fract_x
 _atom_site_fract_y
 _atom_site_fract_z
 _atom_site_occupancy
  Br  Br0  1  0.50215967  0.50216019  0.02485236  1
  Br  Br1  1  0.02485173  0.50216097  0.50216048  1
  Br  Br2  1  0.50215965  0.02485303  0.50216048  1
  Cs  Cs3  1  0.99995143  0.99995227  0.99995104  1
  Ge  Ge4  1  0.47797519  0.47797682  0.47797588  1
