# generated using pymatgen
data_Ag3SI
_symmetry_space_group_name_H-M   'P 1'
_cell_length_a   4.94839650
_cell_length_b   4.94839650
_cell_length_c   4.94839650
_cell_angle_alpha   89.50620234
_cell_angle_beta   89.50620234
_cell_angle_gamma   89.50620234
_symmetry_Int_Tables_number   1
_chemical_formula_structural   Ag3SI
_chemical_formula_sum   'Ag3 S1 I1'
_cell_volume   121.15612063
_cell_formula_units_Z   1
loop_
 _symmetry_equiv_pos_site_id
 _symmetry_equiv_pos_as_xyz
  1  'x, y, z'
loop_
 _atom_site_type_symbol
 _atom_site_label
 _atom_site_symmetry_multiplicity
 _atom_site_fract_x
 _atom_site_fract_y
 _atom_site_fract_z
 _atom_site_occupancy
  Ag  Ag0  1  0.51743755  0.38614337  0.03030403  1
  Ag  Ag1  1  0.03030403  0.51743755  0.38614337  1
  Ag  Ag2  1  0.38614337  0.03030403  0.51743755  1
  I  I3  1  0.99814040  0.99814040  0.99814040  1
  S  S4  1  0.53397800  0.53397800  0.53397800  1
