# generated using pymatgen
data_CeSi3Os
_symmetry_space_group_name_H-M   'P 1'
_cell_length_a   4.28550100
_cell_length_b   4.28550100
_cell_length_c   5.84643684
_cell_angle_alpha   111.50026044
_cell_angle_beta   111.50026044
_cell_angle_gamma   90.00000000
_symmetry_Int_Tables_number   1
_chemical_formula_structural   CeSi3Os
_chemical_formula_sum   'Ce1 Si3 Os1'
_cell_volume   91.82403119
_cell_formula_units_Z   1
loop_
 _symmetry_equiv_pos_site_id
 _symmetry_equiv_pos_as_xyz
  1  'x, y, z'
loop_
 _atom_site_type_symbol
 _atom_site_label
 _atom_site_symmetry_multiplicity
 _atom_site_fract_x
 _atom_site_fract_y
 _atom_site_fract_z
 _atom_site_occupancy
  Ce  Ce0  1  0.00146606  0.00146606  0.00293211  1
  Os  Os1  1  0.65835606  0.65835606  0.31671229  1
  Si  Si2  1  0.76348817  0.26348828  0.52697645  1
  Si  Si3  1  0.26348828  0.76348817  0.52697645  1
  Si  Si4  1  0.42220248  0.42220248  0.84440476  1
