# generated using pymatgen
data_Mn3SnN
_symmetry_space_group_name_H-M   'P 1'
_cell_length_a   3.87357100
_cell_length_b   3.87312100
_cell_length_c   3.87341400
_cell_angle_alpha   90.00000000
_cell_angle_beta   90.00147918
_cell_angle_gamma   90.00000000
_symmetry_Int_Tables_number   1
_chemical_formula_structural   Mn3SnN
_chemical_formula_sum   'Mn3 Sn1 N1'
_cell_volume   58.11209113
_cell_formula_units_Z   1
loop_
 _symmetry_equiv_pos_site_id
 _symmetry_equiv_pos_as_xyz
  1  'x, y, z'
loop_
 _atom_site_type_symbol
 _atom_site_label
 _atom_site_symmetry_multiplicity
 _atom_site_fract_x
 _atom_site_fract_y
 _atom_site_fract_z
 _atom_site_occupancy
  Mn  Mn0  1  0.50000116  0.49999987  0.00000129  1
  Mn  Mn1  1  0.00000129  0.49999987  0.50000077  1
  Mn  Mn2  1  0.49999987  0.00000000  0.50000207  1
  N  N3  1  0.49999987  0.49999987  0.50000207  1
  Sn  Sn4  1  0.00000000  0.00000000  0.00000000  1
