# generated using pymatgen
data_BaNiSn3
_symmetry_space_group_name_H-M   'P 1'
_cell_length_a   4.87365600
_cell_length_b   4.87365600
_cell_length_c   6.49760704
_cell_angle_alpha   112.02645652
_cell_angle_beta   112.02645652
_cell_angle_gamma   90.00000000
_symmetry_Int_Tables_number   1
_chemical_formula_structural   BaNiSn3
_chemical_formula_sum   'Ba1 Ni1 Sn3'
_cell_volume   130.83875291
_cell_formula_units_Z   1
loop_
 _symmetry_equiv_pos_site_id
 _symmetry_equiv_pos_as_xyz
  1  'x, y, z'
loop_
 _atom_site_type_symbol
 _atom_site_label
 _atom_site_symmetry_multiplicity
 _atom_site_fract_x
 _atom_site_fract_y
 _atom_site_fract_z
 _atom_site_occupancy
  Ba  Ba0  1  0.00060362  0.00060362  0.00120724  1
  Ni  Ni1  1  0.66153690  0.66153690  0.32307297  1
  Sn  Sn2  1  0.74939248  0.24939207  0.49878413  1
  Sn  Sn3  1  0.24939207  0.74939248  0.49878413  1
  Sn  Sn4  1  0.42737611  0.42737611  0.85475223  1
