# generated using pymatgen
data_KNbO3
_symmetry_space_group_name_H-M   'P 1'
_cell_length_a   3.99830100
_cell_length_b   4.05512189
_cell_length_c   4.05512189
_cell_angle_alpha   90.23798292
_cell_angle_beta   90.00000000
_cell_angle_gamma   90.00000000
_symmetry_Int_Tables_number   1
_chemical_formula_structural   KNbO3
_chemical_formula_sum   'K1 Nb1 O3'
_cell_volume   65.74754849
_cell_formula_units_Z   1
loop_
 _symmetry_equiv_pos_site_id
 _symmetry_equiv_pos_as_xyz
  1  'x, y, z'
loop_
 _atom_site_type_symbol
 _atom_site_label
 _atom_site_symmetry_multiplicity
 _atom_site_fract_x
 _atom_site_fract_y
 _atom_site_fract_z
 _atom_site_occupancy
  K  K0  1  0.49999987  0.51352026  0.48647869  1
  Nb  Nb1  1  0.00000000  0.00079176  0.99920720  1
  O  O2  1  0.00000000  0.02893092  0.46875853  1
  O  O3  1  0.49999987  0.03351659  0.96648236  1
  O  O4  1  0.00000000  0.53124042  0.97106803  1
