# generated using pymatgen
data_CuCO3
_symmetry_space_group_name_H-M   'P 1'
_cell_length_a   3.34483663
_cell_length_b   3.92950337
_cell_length_c   3.92950337
_cell_angle_alpha   72.95033882
_cell_angle_beta   93.54041109
_cell_angle_gamma   93.54041109
_symmetry_Int_Tables_number   1
_chemical_formula_structural   CuCO3
_chemical_formula_sum   'Cu1 C1 O3'
_cell_volume   49.23193010
_cell_formula_units_Z   1
loop_
 _symmetry_equiv_pos_site_id
 _symmetry_equiv_pos_as_xyz
  1  'x, y, z'
loop_
 _atom_site_type_symbol
 _atom_site_label
 _atom_site_symmetry_multiplicity
 _atom_site_fract_x
 _atom_site_fract_y
 _atom_site_fract_z
 _atom_site_occupancy
  C  C0  1  0.10679856  0.98714798  0.98714798  1
  Cu  Cu1  1  0.45423793  0.53940210  0.53940210  1
  O  O2  1  0.98174645  0.81454705  0.30066192  1
  O  O3  1  0.98174645  0.30066192  0.81454705  1
  O  O4  1  0.39046464  0.86823840  0.86823840  1
