# generated using pymatgen
data_CsEuCl3
_symmetry_space_group_name_H-M   'P 1'
_cell_length_a   5.53302800
_cell_length_b   5.53302800
_cell_length_c   5.53515600
_cell_angle_alpha   90.00000000
_cell_angle_beta   90.00000000
_cell_angle_gamma   90.00000000
_symmetry_Int_Tables_number   1
_chemical_formula_structural   CsEuCl3
_chemical_formula_sum   'Cs1 Eu1 Cl3'
_cell_volume   169.45547347
_cell_formula_units_Z   1
loop_
 _symmetry_equiv_pos_site_id
 _symmetry_equiv_pos_as_xyz
  1  'x, y, z'
loop_
 _atom_site_type_symbol
 _atom_site_label
 _atom_site_symmetry_multiplicity
 _atom_site_fract_x
 _atom_site_fract_y
 _atom_site_fract_z
 _atom_site_occupancy
  Cl  Cl0  1  0.49999928  0.49999928  0.99503971  1
  Cl  Cl1  1  0.00000000  0.49999928  0.49837439  1
  Cl  Cl2  1  0.49999928  0.00000000  0.49837439  1
  Cs  Cs3  1  0.00000000  0.00000000  0.99961772  1
  Eu  Eu4  1  0.49999928  0.49999928  0.49459491  1
