# generated using pymatgen
data_KSbO2F
_symmetry_space_group_name_H-M   'P 1'
_cell_length_a   4.54428316
_cell_length_b   4.54428316
_cell_length_c   4.54428316
_cell_angle_alpha   90.00000000
_cell_angle_beta   90.00000000
_cell_angle_gamma   90.00000000
_symmetry_Int_Tables_number   1
_chemical_formula_structural   KSbO2F
_chemical_formula_sum   'K1 Sb1 O2 F1'
_cell_volume   93.84176228
_cell_formula_units_Z   1
loop_
 _symmetry_equiv_pos_site_id
 _symmetry_equiv_pos_as_xyz
  1  'x, y, z'
loop_
 _atom_site_type_symbol
 _atom_site_label
 _atom_site_symmetry_multiplicity
 _atom_site_fract_x
 _atom_site_fract_y
 _atom_site_fract_z
 _atom_site_occupancy
  Sb  Sb0  1  0.00026766  0.00000000  0.00000000  1
  K  K1  1  0.50597492  0.50000000  0.50000000  1
  F  F2  1  0.49963578  0.00000000  0.50000000  1
  O  O3  1  0.49979722  0.50000000  0.00000000  1
  O  O4  1  0.00488324  0.50000000  0.50000000  1
