# generated using pymatgen
data_HgSbO2F
_symmetry_space_group_name_H-M   'P 1'
_cell_length_a   4.40566670
_cell_length_b   4.40566670
_cell_length_c   4.40566670
_cell_angle_alpha   90.00000000
_cell_angle_beta   90.00000000
_cell_angle_gamma   90.00000000
_symmetry_Int_Tables_number   1
_chemical_formula_structural   HgSbO2F
_chemical_formula_sum   'Hg1 Sb1 O2 F1'
_cell_volume   85.51354578
_cell_formula_units_Z   1
loop_
 _symmetry_equiv_pos_site_id
 _symmetry_equiv_pos_as_xyz
  1  'x, y, z'
loop_
 _atom_site_type_symbol
 _atom_site_label
 _atom_site_symmetry_multiplicity
 _atom_site_fract_x
 _atom_site_fract_y
 _atom_site_fract_z
 _atom_site_occupancy
  Sb  Sb0  1  0.13995873  0.00000000  0.00000000  1
  Hg  Hg1  1  0.54533440  0.50000000  0.50000000  1
  F  F2  1  0.31307082  0.00000000  0.50000000  1
  O  O3  1  0.36393400  0.50000000  0.00000000  1
  O  O4  1  0.01390190  0.50000000  0.50000000  1
