# generated using pymatgen
data_NbRhN3
_symmetry_space_group_name_H-M   'P 1'
_cell_length_a   3.96003911
_cell_length_b   3.96003911
_cell_length_c   3.96003911
_cell_angle_alpha   90.00000000
_cell_angle_beta   90.00000000
_cell_angle_gamma   90.00000000
_symmetry_Int_Tables_number   1
_chemical_formula_structural   NbRhN3
_chemical_formula_sum   'Nb1 Rh1 N3'
_cell_volume   62.10097579
_cell_formula_units_Z   1
loop_
 _symmetry_equiv_pos_site_id
 _symmetry_equiv_pos_as_xyz
  1  'x, y, z'
loop_
 _atom_site_type_symbol
 _atom_site_label
 _atom_site_symmetry_multiplicity
 _atom_site_fract_x
 _atom_site_fract_y
 _atom_site_fract_z
 _atom_site_occupancy
  Nb  Nb0  1  0.14984730  1.00000000  0.00000000  1
  Rh  Rh1  1  0.48763660  0.50000000  0.50000000  1
  N  N2  1  0.36975950  0.00000000  0.50000000  1
  N  N3  1  0.36975950  0.50000000  0.00000000  1
  N  N4  1  0.96749059  0.50000000  0.50000000  1
