# generated using pymatgen
data_CoPtSO2
_symmetry_space_group_name_H-M   'P 1'
_cell_length_a   4.09067973
_cell_length_b   4.09067973
_cell_length_c   4.09067973
_cell_angle_alpha   90.00000000
_cell_angle_beta   90.00000000
_cell_angle_gamma   90.00000000
_symmetry_Int_Tables_number   1
_chemical_formula_structural   CoPtSO2
_chemical_formula_sum   'Co1 Pt1 S1 O2'
_cell_volume   68.45204624
_cell_formula_units_Z   1
loop_
 _symmetry_equiv_pos_site_id
 _symmetry_equiv_pos_as_xyz
  1  'x, y, z'
loop_
 _atom_site_type_symbol
 _atom_site_label
 _atom_site_symmetry_multiplicity
 _atom_site_fract_x
 _atom_site_fract_y
 _atom_site_fract_z
 _atom_site_occupancy
  Pt  Pt0  1  0.77016093  1.00000000  0.00000000  1
  Co  Co1  1  0.62847146  0.50000000  0.50000000  1
  S  S2  1  0.05449020  0.00000000  0.50000000  1
  O  O3  1  0.64605443  0.50000000  0.00000000  1
  O  O4  1  0.14090238  0.50000000  0.50000000  1
