# generated using pymatgen
data_BiWO2F
_symmetry_space_group_name_H-M   'P 1'
_cell_length_a   4.53930462
_cell_length_b   4.53930462
_cell_length_c   4.53930462
_cell_angle_alpha   90.00000000
_cell_angle_beta   90.00000000
_cell_angle_gamma   90.00000000
_symmetry_Int_Tables_number   1
_chemical_formula_structural   BiWO2F
_chemical_formula_sum   'Bi1 W1 O2 F1'
_cell_volume   93.53367190
_cell_formula_units_Z   1
loop_
 _symmetry_equiv_pos_site_id
 _symmetry_equiv_pos_as_xyz
  1  'x, y, z'
loop_
 _atom_site_type_symbol
 _atom_site_label
 _atom_site_symmetry_multiplicity
 _atom_site_fract_x
 _atom_site_fract_y
 _atom_site_fract_z
 _atom_site_occupancy
  W  W0  1  0.00118311  0.00000000  0.00000000  1
  Bi  Bi1  1  0.50493418  0.50000000  0.50000000  1
  F  F2  1  0.49951963  0.00000000  0.50000000  1
  O  O3  1  0.50027373  0.50000000  0.00000000  1
  O  O4  1  0.00584804  0.50000000  0.50000000  1
