# generated using pymatgen
data_MnBNO2
_symmetry_space_group_name_H-M   'P 1'
_cell_length_a   3.66946365
_cell_length_b   3.66946365
_cell_length_c   3.66946365
_cell_angle_alpha   90.00000000
_cell_angle_beta   90.00000000
_cell_angle_gamma   90.00000000
_symmetry_Int_Tables_number   1
_chemical_formula_structural   MnBNO2
_chemical_formula_sum   'Mn1 B1 N1 O2'
_cell_volume   49.40919385
_cell_formula_units_Z   1
loop_
 _symmetry_equiv_pos_site_id
 _symmetry_equiv_pos_as_xyz
  1  'x, y, z'
loop_
 _atom_site_type_symbol
 _atom_site_label
 _atom_site_symmetry_multiplicity
 _atom_site_fract_x
 _atom_site_fract_y
 _atom_site_fract_z
 _atom_site_occupancy
  B  B0  1  0.32169025  0.00000000  1.00000000  1
  Mn  Mn1  1  0.50328170  0.50000000  0.50000000  1
  N  N2  1  0.37384941  0.00000000  0.50000000  1
  O  O3  1  0.37725880  0.50000000  0.00000000  1
  O  O4  1  0.94514043  0.50000000  0.50000000  1
