# generated using pymatgen
data_HfMnSO2
_symmetry_space_group_name_H-M   'P 1'
_cell_length_a   4.49127509
_cell_length_b   4.49127509
_cell_length_c   4.49127509
_cell_angle_alpha   90.00000000
_cell_angle_beta   90.00000000
_cell_angle_gamma   90.00000000
_symmetry_Int_Tables_number   1
_chemical_formula_structural   HfMnSO2
_chemical_formula_sum   'Hf1 Mn1 S1 O2'
_cell_volume   90.59598862
_cell_formula_units_Z   1
loop_
 _symmetry_equiv_pos_site_id
 _symmetry_equiv_pos_as_xyz
  1  'x, y, z'
loop_
 _atom_site_type_symbol
 _atom_site_label
 _atom_site_symmetry_multiplicity
 _atom_site_fract_x
 _atom_site_fract_y
 _atom_site_fract_z
 _atom_site_occupancy
  Mn  Mn0  1  0.17985007  0.00000000  0.00000000  1
  Hf  Hf1  1  0.52526031  0.50000000  0.50000000  1
  S  S2  1  0.30220547  0.00000000  0.50000000  1
  O  O3  1  0.45309391  0.50000000  0.00000000  1
  O  O4  1  0.95121777  0.50000000  0.50000000  1
