# generated using pymatgen
data_ReGeSO2
_symmetry_space_group_name_H-M   'P 1'
_cell_length_a   4.22936616
_cell_length_b   4.22936616
_cell_length_c   4.22936616
_cell_angle_alpha   90.00000000
_cell_angle_beta   90.00000000
_cell_angle_gamma   90.00000000
_symmetry_Int_Tables_number   1
_chemical_formula_structural   ReGeSO2
_chemical_formula_sum   'Re1 Ge1 S1 O2'
_cell_volume   75.65294829
_cell_formula_units_Z   1
loop_
 _symmetry_equiv_pos_site_id
 _symmetry_equiv_pos_as_xyz
  1  'x, y, z'
loop_
 _atom_site_type_symbol
 _atom_site_label
 _atom_site_symmetry_multiplicity
 _atom_site_fract_x
 _atom_site_fract_y
 _atom_site_fract_z
 _atom_site_occupancy
  Ge  Ge0  1  0.03952806  0.00000000  0.00000000  1
  Re  Re1  1  0.56516513  0.50000000  0.50000000  1
  S  S2  1  0.36821943  0.00000000  0.50000000  1
  O  O3  1  0.53878177  0.50000000  0.00000000  1
  O  O4  1  0.00113497  0.50000000  0.50000000  1
