# generated using pymatgen
data_BaHgN2O
_symmetry_space_group_name_H-M   'P 1'
_cell_length_a   4.92321683
_cell_length_b   4.92321683
_cell_length_c   4.92321683
_cell_angle_alpha   90.00000000
_cell_angle_beta   90.00000000
_cell_angle_gamma   90.00000000
_symmetry_Int_Tables_number   1
_chemical_formula_structural   BaHgN2O
_chemical_formula_sum   'Ba1 Hg1 N2 O1'
_cell_volume   119.32924461
_cell_formula_units_Z   1
loop_
 _symmetry_equiv_pos_site_id
 _symmetry_equiv_pos_as_xyz
  1  'x, y, z'
loop_
 _atom_site_type_symbol
 _atom_site_label
 _atom_site_symmetry_multiplicity
 _atom_site_fract_x
 _atom_site_fract_y
 _atom_site_fract_z
 _atom_site_occupancy
  Hg  Hg0  1  0.00016945  0.00000000  0.00000000  1
  Ba  Ba1  1  0.50450973  0.50000000  0.50000000  1
  N  N2  1  0.50044629  0.00000000  0.50000000  1
  N  N3  1  0.50044629  0.50000000  0.00000000  1
  O  O4  1  0.00442823  0.50000000  0.50000000  1
