# generated using pymatgen
data_SrMnO2F
_symmetry_space_group_name_H-M   'P 1'
_cell_length_a   4.64221240
_cell_length_b   4.64221240
_cell_length_c   4.64221240
_cell_angle_alpha   90.00000000
_cell_angle_beta   90.00000000
_cell_angle_gamma   90.00000000
_symmetry_Int_Tables_number   1
_chemical_formula_structural   SrMnO2F
_chemical_formula_sum   'Sr1 Mn1 O2 F1'
_cell_volume   100.04030841
_cell_formula_units_Z   1
loop_
 _symmetry_equiv_pos_site_id
 _symmetry_equiv_pos_as_xyz
  1  'x, y, z'
loop_
 _atom_site_type_symbol
 _atom_site_label
 _atom_site_symmetry_multiplicity
 _atom_site_fract_x
 _atom_site_fract_y
 _atom_site_fract_z
 _atom_site_occupancy
  Mn  Mn0  1  0.00944565  0.00000000  0.00000000  1
  Sr  Sr1  1  0.50236817  0.50000000  0.50000000  1
  F  F2  1  0.49862701  0.00000000  0.50000000  1
  O  O3  1  0.50142806  0.50000000  0.00000000  1
  O  O4  1  0.00190216  0.50000000  0.50000000  1
