# generated using pymatgen
data_RbCdO2F
_symmetry_space_group_name_H-M   'P 1'
_cell_length_a   4.53942760
_cell_length_b   4.53942760
_cell_length_c   4.53942760
_cell_angle_alpha   90.00000000
_cell_angle_beta   90.00000000
_cell_angle_gamma   90.00000000
_symmetry_Int_Tables_number   1
_chemical_formula_structural   RbCdO2F
_chemical_formula_sum   'Rb1 Cd1 O2 F1'
_cell_volume   93.54127438
_cell_formula_units_Z   1
loop_
 _symmetry_equiv_pos_site_id
 _symmetry_equiv_pos_as_xyz
  1  'x, y, z'
loop_
 _atom_site_type_symbol
 _atom_site_label
 _atom_site_symmetry_multiplicity
 _atom_site_fract_x
 _atom_site_fract_y
 _atom_site_fract_z
 _atom_site_occupancy
  Rb  Rb0  1  0.00048954  0.00000000  0.00000000  1
  Cd  Cd1  1  0.50240423  0.50000000  0.50000000  1
  F  F2  1  0.49998036  0.00000000  0.50000000  1
  O  O3  1  0.50009987  0.50000000  0.00000000  1
  O  O4  1  0.00360677  0.50000000  0.50000000  1
