# generated using pymatgen
data_GeBiSO2
_symmetry_space_group_name_H-M   'P 1'
_cell_length_a   4.34057166
_cell_length_b   4.34057166
_cell_length_c   4.34057166
_cell_angle_alpha   90.00000000
_cell_angle_beta   90.00000000
_cell_angle_gamma   90.00000000
_symmetry_Int_Tables_number   1
_chemical_formula_structural   GeBiSO2
_chemical_formula_sum   'Ge1 Bi1 S1 O2'
_cell_volume   81.77881114
_cell_formula_units_Z   1
loop_
 _symmetry_equiv_pos_site_id
 _symmetry_equiv_pos_as_xyz
  1  'x, y, z'
loop_
 _atom_site_type_symbol
 _atom_site_label
 _atom_site_symmetry_multiplicity
 _atom_site_fract_x
 _atom_site_fract_y
 _atom_site_fract_z
 _atom_site_occupancy
  Bi  Bi0  1  0.03178207  0.00000000  0.00000000  1
  Ge  Ge1  1  0.57135474  0.50000000  0.50000000  1
  S  S2  1  0.42068889  0.00000000  0.50000000  1
  O  O3  1  0.50370459  0.50000000  0.00000000  1
  O  O4  1  0.98878056  0.50000000  0.50000000  1
