# generated using pymatgen
data_CaSiSO2
_symmetry_space_group_name_H-M   'P 1'
_cell_length_a   4.46758291
_cell_length_b   4.46758291
_cell_length_c   4.46758291
_cell_angle_alpha   90.00000000
_cell_angle_beta   90.00000000
_cell_angle_gamma   90.00000000
_symmetry_Int_Tables_number   1
_chemical_formula_structural   CaSiSO2
_chemical_formula_sum   'Ca1 Si1 S1 O2'
_cell_volume   89.16981432
_cell_formula_units_Z   1
loop_
 _symmetry_equiv_pos_site_id
 _symmetry_equiv_pos_as_xyz
  1  'x, y, z'
loop_
 _atom_site_type_symbol
 _atom_site_label
 _atom_site_symmetry_multiplicity
 _atom_site_fract_x
 _atom_site_fract_y
 _atom_site_fract_z
 _atom_site_occupancy
  Si  Si0  1  0.27386059  0.00000000  0.00000000  1
  Ca  Ca1  1  0.52941631  0.50000000  0.50000000  1
  S  S2  1  0.08899010  0.00000000  0.50000000  1
  O  O3  1  0.41652375  0.50000000  0.00000000  1
  O  O4  1  0.02626713  0.50000000  0.50000000  1
