# generated using pymatgen
data_ScNiO2F
_symmetry_space_group_name_H-M   'P 1'
_cell_length_a   3.83587238
_cell_length_b   3.83587238
_cell_length_c   3.83587238
_cell_angle_alpha   90.00000000
_cell_angle_beta   90.00000000
_cell_angle_gamma   90.00000000
_symmetry_Int_Tables_number   1
_chemical_formula_structural   ScNiO2F
_chemical_formula_sum   'Sc1 Ni1 O2 F1'
_cell_volume   56.44070747
_cell_formula_units_Z   1
loop_
 _symmetry_equiv_pos_site_id
 _symmetry_equiv_pos_as_xyz
  1  'x, y, z'
loop_
 _atom_site_type_symbol
 _atom_site_label
 _atom_site_symmetry_multiplicity
 _atom_site_fract_x
 _atom_site_fract_y
 _atom_site_fract_z
 _atom_site_occupancy
  Sc  Sc0  1  0.00033534  0.00000000  0.00000000  1
  Ni  Ni1  1  0.50624851  0.50000000  0.50000000  1
  F  F2  1  0.49999519  0.00000000  0.50000000  1
  O  O3  1  0.50041194  0.50000000  0.00000000  1
  O  O4  1  0.00469686  0.50000000  0.50000000  1
