# generated using pymatgen
data_LaMgO3
_symmetry_space_group_name_H-M   'P 1'
_cell_length_a   3.96160831
_cell_length_b   3.96160831
_cell_length_c   3.96160831
_cell_angle_alpha   90.00000000
_cell_angle_beta   90.00000000
_cell_angle_gamma   90.00000000
_symmetry_Int_Tables_number   1
_chemical_formula_structural   LaMgO3
_chemical_formula_sum   'La1 Mg1 O3'
_cell_volume   62.17482945
_cell_formula_units_Z   1
loop_
 _symmetry_equiv_pos_site_id
 _symmetry_equiv_pos_as_xyz
  1  'x, y, z'
loop_
 _atom_site_type_symbol
 _atom_site_label
 _atom_site_symmetry_multiplicity
 _atom_site_fract_x
 _atom_site_fract_y
 _atom_site_fract_z
 _atom_site_occupancy
  La  La0  1  0.00185784  0.00000000  0.00000000  1
  Mg  Mg1  1  0.50192886  0.50000000  0.50000000  1
  O  O2  1  0.50141042  0.00000000  0.50000000  1
  O  O3  1  0.50141042  0.50000000  0.00000000  1
  O  O4  1  0.00236939  0.50000000  0.50000000  1
