# generated using pymatgen
data_NbSnO3
_symmetry_space_group_name_H-M   'P 1'
_cell_length_a   4.13060359
_cell_length_b   4.13060359
_cell_length_c   4.13060359
_cell_angle_alpha   90.00000000
_cell_angle_beta   90.00000000
_cell_angle_gamma   90.00000000
_symmetry_Int_Tables_number   1
_chemical_formula_structural   NbSnO3
_chemical_formula_sum   'Nb1 Sn1 O3'
_cell_volume   70.47588753
_cell_formula_units_Z   1
loop_
 _symmetry_equiv_pos_site_id
 _symmetry_equiv_pos_as_xyz
  1  'x, y, z'
loop_
 _atom_site_type_symbol
 _atom_site_label
 _atom_site_symmetry_multiplicity
 _atom_site_fract_x
 _atom_site_fract_y
 _atom_site_fract_z
 _atom_site_occupancy
  Sn  Sn0  1  0.00173630  0.00000000  0.00000000  1
  Nb  Nb1  1  0.50219366  0.50000000  0.50000000  1
  O  O2  1  0.50326927  0.00000000  0.50000000  1
  O  O3  1  0.50326927  0.50000000  0.00000000  1
  O  O4  1  0.00232338  0.50000000  0.50000000  1
