# generated using pymatgen
data_ScZnO3
_symmetry_space_group_name_H-M   'P 1'
_cell_length_a   4.07121783
_cell_length_b   4.07121783
_cell_length_c   4.07121783
_cell_angle_alpha   90.00000000
_cell_angle_beta   90.00000000
_cell_angle_gamma   90.00000000
_symmetry_Int_Tables_number   1
_chemical_formula_structural   ScZnO3
_chemical_formula_sum   'Sc1 Zn1 O3'
_cell_volume   67.47968105
_cell_formula_units_Z   1
loop_
 _symmetry_equiv_pos_site_id
 _symmetry_equiv_pos_as_xyz
  1  'x, y, z'
loop_
 _atom_site_type_symbol
 _atom_site_label
 _atom_site_symmetry_multiplicity
 _atom_site_fract_x
 _atom_site_fract_y
 _atom_site_fract_z
 _atom_site_occupancy
  Zn  Zn0  1  0.00032808  0.00000000  0.00000000  1
  Sc  Sc1  1  0.50611962  0.50000000  0.50000000  1
  O  O2  1  0.49996137  0.00000000  0.50000000  1
  O  O3  1  0.49996137  0.50000000  0.00000000  1
  O  O4  1  0.00452011  0.50000000  0.50000000  1
