# generated using pymatgen
data_VNiSO2
_symmetry_space_group_name_H-M   'P 1'
_cell_length_a   4.20620133
_cell_length_b   4.20620133
_cell_length_c   4.20620133
_cell_angle_alpha   90.00000000
_cell_angle_beta   90.00000000
_cell_angle_gamma   90.00000000
_symmetry_Int_Tables_number   1
_chemical_formula_structural   VNiSO2
_chemical_formula_sum   'V1 Ni1 S1 O2'
_cell_volume   74.41665941
_cell_formula_units_Z   1
loop_
 _symmetry_equiv_pos_site_id
 _symmetry_equiv_pos_as_xyz
  1  'x, y, z'
loop_
 _atom_site_type_symbol
 _atom_site_label
 _atom_site_symmetry_multiplicity
 _atom_site_fract_x
 _atom_site_fract_y
 _atom_site_fract_z
 _atom_site_occupancy
  Ni  Ni0  1  0.43698180  0.00000000  0.00000000  1
  V  V1  1  0.48525435  0.50000000  0.50000000  1
  S  S2  1  0.24455418  0.00000000  0.50000000  1
  O  O3  1  0.43480678  0.50000000  0.00000000  1
  O  O4  1  0.88919156  0.50000000  0.50000000  1
