# generated using pymatgen
data_LiBeSO2
_symmetry_space_group_name_H-M   'P 1'
_cell_length_a   3.80541854
_cell_length_b   3.80541854
_cell_length_c   3.80541854
_cell_angle_alpha   90.00000000
_cell_angle_beta   90.00000000
_cell_angle_gamma   90.00000000
_symmetry_Int_Tables_number   1
_chemical_formula_structural   LiBeSO2
_chemical_formula_sum   'Li1 Be1 S1 O2'
_cell_volume   55.10706618
_cell_formula_units_Z   1
loop_
 _symmetry_equiv_pos_site_id
 _symmetry_equiv_pos_as_xyz
  1  'x, y, z'
loop_
 _atom_site_type_symbol
 _atom_site_label
 _atom_site_symmetry_multiplicity
 _atom_site_fract_x
 _atom_site_fract_y
 _atom_site_fract_z
 _atom_site_occupancy
  Li  Li0  1  0.70867211  0.00000000  0.00000000  1
  Be  Be1  1  0.73910451  0.50000000  0.50000000  1
  S  S2  1  0.23333374  0.00000000  0.50000000  1
  O  O3  1  0.69890058  0.50000000  0.00000000  1
  O  O4  1  0.16242858  0.50000000  0.50000000  1
