# generated using pymatgen
data_YBiO2F
_symmetry_space_group_name_H-M   'P 1'
_cell_length_a   4.58529329
_cell_length_b   4.58529329
_cell_length_c   4.58529329
_cell_angle_alpha   90.00000000
_cell_angle_beta   90.00000000
_cell_angle_gamma   90.00000000
_symmetry_Int_Tables_number   1
_chemical_formula_structural   YBiO2F
_chemical_formula_sum   'Y1 Bi1 O2 F1'
_cell_volume   96.40539946
_cell_formula_units_Z   1
loop_
 _symmetry_equiv_pos_site_id
 _symmetry_equiv_pos_as_xyz
  1  'x, y, z'
loop_
 _atom_site_type_symbol
 _atom_site_label
 _atom_site_symmetry_multiplicity
 _atom_site_fract_x
 _atom_site_fract_y
 _atom_site_fract_z
 _atom_site_occupancy
  Y  Y0  1  0.00158465  0.00000000  0.00000000  1
  Bi  Bi1  1  0.50333442  0.50000000  0.50000000  1
  F  F2  1  0.49959419  0.00000000  0.50000000  1
  O  O3  1  0.50117961  0.50000000  0.00000000  1
  O  O4  1  0.00398894  0.50000000  0.50000000  1
