# generated using pymatgen
data_ZrCoN3
_symmetry_space_group_name_H-M   'P 1'
_cell_length_a   4.13822499
_cell_length_b   4.13822499
_cell_length_c   4.13822499
_cell_angle_alpha   90.00000000
_cell_angle_beta   90.00000000
_cell_angle_gamma   90.00000000
_symmetry_Int_Tables_number   1
_chemical_formula_structural   ZrCoN3
_chemical_formula_sum   'Zr1 Co1 N3'
_cell_volume   70.86671406
_cell_formula_units_Z   1
loop_
 _symmetry_equiv_pos_site_id
 _symmetry_equiv_pos_as_xyz
  1  'x, y, z'
loop_
 _atom_site_type_symbol
 _atom_site_label
 _atom_site_symmetry_multiplicity
 _atom_site_fract_x
 _atom_site_fract_y
 _atom_site_fract_z
 _atom_site_occupancy
  Co  Co0  1  0.59331930  1.00000000  0.00000000  1
  Zr  Zr1  1  0.47016995  0.50000000  0.50000000  1
  N  N2  1  0.58100798  0.00000000  0.50000000  1
  N  N3  1  0.58100798  0.50000000  0.00000000  1
  N  N4  1  0.97571949  0.50000000  0.50000000  1
