# generated using pymatgen
data_TlRhN2O
_symmetry_space_group_name_H-M   'P 1'
_cell_length_a   4.19000866
_cell_length_b   4.19000866
_cell_length_c   4.19000866
_cell_angle_alpha   90.00000000
_cell_angle_beta   90.00000000
_cell_angle_gamma   90.00000000
_symmetry_Int_Tables_number   1
_chemical_formula_structural   TlRhN2O
_chemical_formula_sum   'Tl1 Rh1 N2 O1'
_cell_volume   73.56051528
_cell_formula_units_Z   1
loop_
 _symmetry_equiv_pos_site_id
 _symmetry_equiv_pos_as_xyz
  1  'x, y, z'
loop_
 _atom_site_type_symbol
 _atom_site_label
 _atom_site_symmetry_multiplicity
 _atom_site_fract_x
 _atom_site_fract_y
 _atom_site_fract_z
 _atom_site_occupancy
  Rh  Rh0  1  0.29356059  0.00000000  0.00000000  1
  Tl  Tl1  1  0.58347736  0.50000000  0.50000000  1
  N  N2  1  0.26672800  0.00000000  0.50000000  1
  N  N3  1  0.26672800  0.50000000  0.00000000  1
  O  O4  1  0.06561830  0.50000000  0.50000000  1
