# generated using pymatgen
data_SbOsSO2
_symmetry_space_group_name_H-M   'P 1'
_cell_length_a   4.46692811
_cell_length_b   4.46692811
_cell_length_c   4.46692811
_cell_angle_alpha   90.00000000
_cell_angle_beta   90.00000000
_cell_angle_gamma   90.00000000
_symmetry_Int_Tables_number   1
_chemical_formula_structural   SbOsSO2
_chemical_formula_sum   'Sb1 Os1 S1 O2'
_cell_volume   89.13061195
_cell_formula_units_Z   1
loop_
 _symmetry_equiv_pos_site_id
 _symmetry_equiv_pos_as_xyz
  1  'x, y, z'
loop_
 _atom_site_type_symbol
 _atom_site_label
 _atom_site_symmetry_multiplicity
 _atom_site_fract_x
 _atom_site_fract_y
 _atom_site_fract_z
 _atom_site_occupancy
  Os  Os0  1  0.33442887  0.00000000  0.00000000  1
  Sb  Sb1  1  0.54639178  0.50000000  0.50000000  1
  S  S2  1  0.22047358  0.00000000  0.50000000  1
  O  O3  1  0.41484748  0.50000000  0.00000000  1
  O  O4  1  0.97620687  0.50000000  0.50000000  1
