# generated using pymatgen
data_TeAuNO2
_symmetry_space_group_name_H-M   'P 1'
_cell_length_a   4.19074922
_cell_length_b   4.19074922
_cell_length_c   4.19074922
_cell_angle_alpha   90.00000000
_cell_angle_beta   90.00000000
_cell_angle_gamma   90.00000000
_symmetry_Int_Tables_number   1
_chemical_formula_structural   TeAuNO2
_chemical_formula_sum   'Te1 Au1 N1 O2'
_cell_volume   73.59952596
_cell_formula_units_Z   1
loop_
 _symmetry_equiv_pos_site_id
 _symmetry_equiv_pos_as_xyz
  1  'x, y, z'
loop_
 _atom_site_type_symbol
 _atom_site_label
 _atom_site_symmetry_multiplicity
 _atom_site_fract_x
 _atom_site_fract_y
 _atom_site_fract_z
 _atom_site_occupancy
  Te  Te0  1  0.17297389  0.00000000  0.00000000  1
  Au  Au1  1  0.52420553  0.50000000  0.50000000  1
  N  N2  1  0.42479112  0.00000000  0.50000000  1
  O  O3  1  0.41184481  0.50000000  0.00000000  1
  O  O4  1  0.01624726  0.50000000  0.50000000  1
