# generated using pymatgen
data_InAgN3
_symmetry_space_group_name_H-M   'P 1'
_cell_length_a   4.19017199
_cell_length_b   4.19017199
_cell_length_c   4.19017199
_cell_angle_alpha   90.00000000
_cell_angle_beta   90.00000000
_cell_angle_gamma   90.00000000
_symmetry_Int_Tables_number   1
_chemical_formula_structural   InAgN3
_chemical_formula_sum   'In1 Ag1 N3'
_cell_volume   73.56911783
_cell_formula_units_Z   1
loop_
 _symmetry_equiv_pos_site_id
 _symmetry_equiv_pos_as_xyz
  1  'x, y, z'
loop_
 _atom_site_type_symbol
 _atom_site_label
 _atom_site_symmetry_multiplicity
 _atom_site_fract_x
 _atom_site_fract_y
 _atom_site_fract_z
 _atom_site_occupancy
  In  In0  1  0.17070794  1.00000000  0.00000000  1
  Ag  Ag1  1  0.67942533  0.50000000  0.50000000  1
  N  N2  1  0.26799408  0.00000000  0.50000000  1
  N  N3  1  0.26799408  0.50000000  0.00000000  1
  N  N4  1  0.17450220  0.50000000  0.50000000  1
