# generated using pymatgen
data_CaAlN3
_symmetry_space_group_name_H-M   'P 1'
_cell_length_a   3.86818470
_cell_length_b   3.86818470
_cell_length_c   3.86818470
_cell_angle_alpha   90.00000000
_cell_angle_beta   90.00000000
_cell_angle_gamma   90.00000000
_symmetry_Int_Tables_number   1
_chemical_formula_structural   CaAlN3
_chemical_formula_sum   'Ca1 Al1 N3'
_cell_volume   57.87907871
_cell_formula_units_Z   1
loop_
 _symmetry_equiv_pos_site_id
 _symmetry_equiv_pos_as_xyz
  1  'x, y, z'
loop_
 _atom_site_type_symbol
 _atom_site_label
 _atom_site_symmetry_multiplicity
 _atom_site_fract_x
 _atom_site_fract_y
 _atom_site_fract_z
 _atom_site_occupancy
  Ca  Ca0  1  0.00689526  0.00000000  0.00000000  1
  Al  Al1  1  0.50132090  0.50000000  0.50000000  1
  N  N2  1  0.50035803  0.00000000  0.50000000  1
  N  N3  1  0.50035803  0.50000000  0.00000000  1
  N  N4  1  0.00069790  0.50000000  0.50000000  1
