# generated using pymatgen
data_NaBeN3
_symmetry_space_group_name_H-M   'P 1'
_cell_length_a   3.58645234
_cell_length_b   3.58645234
_cell_length_c   3.58645234
_cell_angle_alpha   90.00000000
_cell_angle_beta   90.00000000
_cell_angle_gamma   90.00000000
_symmetry_Int_Tables_number   1
_chemical_formula_structural   NaBeN3
_chemical_formula_sum   'Na1 Be1 N3'
_cell_volume   46.13124669
_cell_formula_units_Z   1
loop_
 _symmetry_equiv_pos_site_id
 _symmetry_equiv_pos_as_xyz
  1  'x, y, z'
loop_
 _atom_site_type_symbol
 _atom_site_label
 _atom_site_symmetry_multiplicity
 _atom_site_fract_x
 _atom_site_fract_y
 _atom_site_fract_z
 _atom_site_occupancy
  Na  Na0  1  0.00036323  0.00000000  0.00000000  1
  Be  Be1  1  0.50494103  0.50000000  0.50000000  1
  N  N2  1  0.49987970  0.00000000  0.50000000  1
  N  N3  1  0.49987970  0.50000000  0.00000000  1
  N  N4  1  0.00543894  0.50000000  0.50000000  1
