# generated using pymatgen
data_SbRuNO2
_symmetry_space_group_name_H-M   'P 1'
_cell_length_a   3.98875870
_cell_length_b   3.98875870
_cell_length_c   3.98875870
_cell_angle_alpha   90.00000000
_cell_angle_beta   90.00000000
_cell_angle_gamma   90.00000000
_symmetry_Int_Tables_number   1
_chemical_formula_structural   SbRuNO2
_chemical_formula_sum   'Sb1 Ru1 N1 O2'
_cell_volume   63.46193248
_cell_formula_units_Z   1
loop_
 _symmetry_equiv_pos_site_id
 _symmetry_equiv_pos_as_xyz
  1  'x, y, z'
loop_
 _atom_site_type_symbol
 _atom_site_label
 _atom_site_symmetry_multiplicity
 _atom_site_fract_x
 _atom_site_fract_y
 _atom_site_fract_z
 _atom_site_occupancy
  Sb  Sb0  1  0.00091893  0.00000000  0.00000000  1
  Ru  Ru1  1  0.50409551  0.50000000  0.50000000  1
  N  N2  1  0.50049582  0.00000000  0.50000000  1
  O  O3  1  0.49979529  0.50000000  0.00000000  1
  O  O4  1  0.00453179  0.50000000  0.50000000  1
