# generated using pymatgen
data_LiInSO2
_symmetry_space_group_name_H-M   'P 1'
_cell_length_a   4.34054458
_cell_length_b   4.34054458
_cell_length_c   4.34054458
_cell_angle_alpha   90.00000000
_cell_angle_beta   90.00000000
_cell_angle_gamma   90.00000000
_symmetry_Int_Tables_number   1
_chemical_formula_structural   LiInSO2
_chemical_formula_sum   'Li1 In1 S1 O2'
_cell_volume   81.77728030
_cell_formula_units_Z   1
loop_
 _symmetry_equiv_pos_site_id
 _symmetry_equiv_pos_as_xyz
  1  'x, y, z'
loop_
 _atom_site_type_symbol
 _atom_site_label
 _atom_site_symmetry_multiplicity
 _atom_site_fract_x
 _atom_site_fract_y
 _atom_site_fract_z
 _atom_site_occupancy
  Li  Li0  1  0.83444699  1.00000000  0.00000000  1
  In  In1  1  0.62532738  0.50000000  0.50000000  1
  S  S2  1  0.04429885  0.00000000  0.50000000  1
  O  O3  1  0.68031657  0.50000000  0.00000000  1
  O  O4  1  0.14053642  0.50000000  0.50000000  1
