# generated using pymatgen
data_CrAsSO2
_symmetry_space_group_name_H-M   'P 1'
_cell_length_a   4.22286101
_cell_length_b   4.22286101
_cell_length_c   4.22286101
_cell_angle_alpha   90.00000000
_cell_angle_beta   90.00000000
_cell_angle_gamma   90.00000000
_symmetry_Int_Tables_number   1
_chemical_formula_structural   CrAsSO2
_chemical_formula_sum   'Cr1 As1 S1 O2'
_cell_volume   75.30440193
_cell_formula_units_Z   1
loop_
 _symmetry_equiv_pos_site_id
 _symmetry_equiv_pos_as_xyz
  1  'x, y, z'
loop_
 _atom_site_type_symbol
 _atom_site_label
 _atom_site_symmetry_multiplicity
 _atom_site_fract_x
 _atom_site_fract_y
 _atom_site_fract_z
 _atom_site_occupancy
  As  As0  1  0.14629830  0.00000000  0.00000000  1
  Cr  Cr1  1  0.55311794  0.50000000  0.50000000  1
  S  S2  1  0.41117694  0.00000000  0.50000000  1
  O  O3  1  0.41174065  0.50000000  0.00000000  1
  O  O4  1  0.98064744  0.50000000  0.50000000  1
