# generated using pymatgen
data_LiZnNOF
_symmetry_space_group_name_H-M   'P 1'
_cell_length_a   3.79600622
_cell_length_b   3.79600622
_cell_length_c   3.79600622
_cell_angle_alpha   90.00000000
_cell_angle_beta   90.00000000
_cell_angle_gamma   90.00000000
_symmetry_Int_Tables_number   1
_chemical_formula_structural   LiZnNOF
_chemical_formula_sum   'Li1 Zn1 N1 O1 F1'
_cell_volume   54.69917128
_cell_formula_units_Z   1
loop_
 _symmetry_equiv_pos_site_id
 _symmetry_equiv_pos_as_xyz
  1  'x, y, z'
loop_
 _atom_site_type_symbol
 _atom_site_label
 _atom_site_symmetry_multiplicity
 _atom_site_fract_x
 _atom_site_fract_y
 _atom_site_fract_z
 _atom_site_occupancy
  Zn  Zn0  1  0.00030420  0.00000000  0.00000000  1
  Li  Li1  1  0.50567135  0.50000000  0.50000000  1
  F  F2  1  0.49999265  0.00000000  0.50000000  1
  N  N3  1  0.49938553  0.50000000  0.00000000  1
  O  O4  1  0.00464996  0.50000000  0.50000000  1
