# generated using pymatgen
data_GaAsNO2
_symmetry_space_group_name_H-M   'P 1'
_cell_length_a   3.89850521
_cell_length_b   3.89850521
_cell_length_c   3.89850521
_cell_angle_alpha   90.00000000
_cell_angle_beta   90.00000000
_cell_angle_gamma   90.00000000
_symmetry_Int_Tables_number   1
_chemical_formula_structural   GaAsNO2
_chemical_formula_sum   'Ga1 As1 N1 O2'
_cell_volume   59.25081902
_cell_formula_units_Z   1
loop_
 _symmetry_equiv_pos_site_id
 _symmetry_equiv_pos_as_xyz
  1  'x, y, z'
loop_
 _atom_site_type_symbol
 _atom_site_label
 _atom_site_symmetry_multiplicity
 _atom_site_fract_x
 _atom_site_fract_y
 _atom_site_fract_z
 _atom_site_occupancy
  As  As0  1  0.00211140  0.00000000  0.00000000  1
  Ga  Ga1  1  0.50344446  0.50000000  0.50000000  1
  N  N2  1  0.50046139  0.00000000  0.50000000  1
  O  O3  1  0.50087098  0.50000000  0.00000000  1
  O  O4  1  0.00283473  0.50000000  0.50000000  1
