# generated using pymatgen
data_ScPdSO2
_symmetry_space_group_name_H-M   'P 1'
_cell_length_a   4.26287784
_cell_length_b   4.26287784
_cell_length_c   4.26287784
_cell_angle_alpha   90.00000000
_cell_angle_beta   90.00000000
_cell_angle_gamma   90.00000000
_symmetry_Int_Tables_number   1
_chemical_formula_structural   ScPdSO2
_chemical_formula_sum   'Sc1 Pd1 S1 O2'
_cell_volume   77.46555940
_cell_formula_units_Z   1
loop_
 _symmetry_equiv_pos_site_id
 _symmetry_equiv_pos_as_xyz
  1  'x, y, z'
loop_
 _atom_site_type_symbol
 _atom_site_label
 _atom_site_symmetry_multiplicity
 _atom_site_fract_x
 _atom_site_fract_y
 _atom_site_fract_z
 _atom_site_occupancy
  Sc  Sc0  1  0.04541873  0.00000000  0.00000000  1
  Pd  Pd1  1  0.53948238  0.50000000  0.50000000  1
  S  S2  1  0.36816504  0.00000000  0.50000000  1
  O  O3  1  0.51659070  0.50000000  0.00000000  1
  O  O4  1  0.02306265  0.50000000  0.50000000  1
