# generated using pymatgen
data_LaNbNO2
_symmetry_space_group_name_H-M   'P 1'
_cell_length_a   4.46405418
_cell_length_b   4.46405418
_cell_length_c   4.46405418
_cell_angle_alpha   90.00000000
_cell_angle_beta   90.00000000
_cell_angle_gamma   90.00000000
_symmetry_Int_Tables_number   1
_chemical_formula_structural   LaNbNO2
_chemical_formula_sum   'La1 Nb1 N1 O2'
_cell_volume   88.95868814
_cell_formula_units_Z   1
loop_
 _symmetry_equiv_pos_site_id
 _symmetry_equiv_pos_as_xyz
  1  'x, y, z'
loop_
 _atom_site_type_symbol
 _atom_site_label
 _atom_site_symmetry_multiplicity
 _atom_site_fract_x
 _atom_site_fract_y
 _atom_site_fract_z
 _atom_site_occupancy
  Nb  Nb0  1  0.26522611  0.00000000  0.00000000  1
  La  La1  1  0.55186242  0.50000000  0.50000000  1
  N  N2  1  0.33047467  0.00000000  0.50000000  1
  O  O3  1  0.34748511  0.50000000  0.00000000  1
  O  O4  1  0.02679120  0.50000000  0.50000000  1
