# generated using pymatgen
data_CoPtNO2
_symmetry_space_group_name_H-M   'P 1'
_cell_length_a   3.71689339
_cell_length_b   3.71689339
_cell_length_c   3.71689339
_cell_angle_alpha   90.00000000
_cell_angle_beta   90.00000000
_cell_angle_gamma   90.00000000
_symmetry_Int_Tables_number   1
_chemical_formula_structural   CoPtNO2
_chemical_formula_sum   'Co1 Pt1 N1 O2'
_cell_volume   51.34998404
_cell_formula_units_Z   1
loop_
 _symmetry_equiv_pos_site_id
 _symmetry_equiv_pos_as_xyz
  1  'x, y, z'
loop_
 _atom_site_type_symbol
 _atom_site_label
 _atom_site_symmetry_multiplicity
 _atom_site_fract_x
 _atom_site_fract_y
 _atom_site_fract_z
 _atom_site_occupancy
  Pt  Pt0  1  0.00410686  0.00000000  0.00000000  1
  Co  Co1  1  0.50042011  0.50000000  0.50000000  1
  N  N2  1  0.50198924  0.00000000  0.50000000  1
  O  O3  1  0.50006500  0.50000000  0.00000000  1
  O  O4  1  0.00066631  0.50000000  0.50000000  1
