# generated using pymatgen
data_RbPbNO2
_symmetry_space_group_name_H-M   'P 1'
_cell_length_a   4.54407983
_cell_length_b   4.54407983
_cell_length_c   4.54407983
_cell_angle_alpha   90.00000000
_cell_angle_beta   90.00000000
_cell_angle_gamma   90.00000000
_symmetry_Int_Tables_number   1
_chemical_formula_structural   RbPbNO2
_chemical_formula_sum   'Rb1 Pb1 N1 O2'
_cell_volume   93.82916606
_cell_formula_units_Z   1
loop_
 _symmetry_equiv_pos_site_id
 _symmetry_equiv_pos_as_xyz
  1  'x, y, z'
loop_
 _atom_site_type_symbol
 _atom_site_label
 _atom_site_symmetry_multiplicity
 _atom_site_fract_x
 _atom_site_fract_y
 _atom_site_fract_z
 _atom_site_occupancy
  Rb  Rb0  1  0.00141975  0.00000000  0.00000000  1
  Pb  Pb1  1  0.49989089  0.50000000  0.50000000  1
  N  N2  1  0.49903145  0.00000000  0.50000000  1
  O  O3  1  0.50175360  0.50000000  0.00000000  1
  O  O4  1  0.99901456  0.50000000  0.50000000  1
