# generated using pymatgen
data_ZrTiO3
_symmetry_space_group_name_H-M   'P 1'
_cell_length_a   4.12875719
_cell_length_b   4.12875719
_cell_length_c   4.12875719
_cell_angle_alpha   90.00000000
_cell_angle_beta   90.00000000
_cell_angle_gamma   90.00000000
_symmetry_Int_Tables_number   1
_chemical_formula_structural   ZrTiO3
_chemical_formula_sum   'Zr1 Ti1 O3'
_cell_volume   70.38142052
_cell_formula_units_Z   1
loop_
 _symmetry_equiv_pos_site_id
 _symmetry_equiv_pos_as_xyz
  1  'x, y, z'
loop_
 _atom_site_type_symbol
 _atom_site_label
 _atom_site_symmetry_multiplicity
 _atom_site_fract_x
 _atom_site_fract_y
 _atom_site_fract_z
 _atom_site_occupancy
  Ti  Ti0  1  0.00143317  0.00000000  0.00000000  1
  Zr  Zr1  1  0.50396769  0.50000000  0.50000000  1
  O  O2  1  0.50071107  0.00000000  0.50000000  1
  O  O3  1  0.50071107  0.50000000  0.00000000  1
  O  O4  1  0.00248246  0.50000000  0.50000000  1
