# generated using pymatgen
data_TlGeO3
_symmetry_space_group_name_H-M   'P 1'
_cell_length_a   4.29558217
_cell_length_b   4.29558217
_cell_length_c   4.29558217
_cell_angle_alpha   90.00000000
_cell_angle_beta   90.00000000
_cell_angle_gamma   90.00000000
_symmetry_Int_Tables_number   1
_chemical_formula_structural   TlGeO3
_chemical_formula_sum   'Tl1 Ge1 O3'
_cell_volume   79.26219487
_cell_formula_units_Z   1
loop_
 _symmetry_equiv_pos_site_id
 _symmetry_equiv_pos_as_xyz
  1  'x, y, z'
loop_
 _atom_site_type_symbol
 _atom_site_label
 _atom_site_symmetry_multiplicity
 _atom_site_fract_x
 _atom_site_fract_y
 _atom_site_fract_z
 _atom_site_occupancy
  Ge  Ge0  1  0.16859980  0.00000000  0.00000000  1
  Tl  Tl1  1  0.54023382  0.50000000  0.50000000  1
  O  O2  1  0.37586158  0.00000000  0.50000000  1
  O  O3  1  0.37586158  0.50000000  0.00000000  1
  O  O4  1  0.02051693  0.50000000  0.50000000  1
