# generated using pymatgen
data_VSiN2O
_symmetry_space_group_name_H-M   'P 1'
_cell_length_a   3.61271852
_cell_length_b   3.61271852
_cell_length_c   3.61271852
_cell_angle_alpha   90.00000000
_cell_angle_beta   90.00000000
_cell_angle_gamma   90.00000000
_symmetry_Int_Tables_number   1
_chemical_formula_structural   VSiN2O
_chemical_formula_sum   'V1 Si1 N2 O1'
_cell_volume   47.15224510
_cell_formula_units_Z   1
loop_
 _symmetry_equiv_pos_site_id
 _symmetry_equiv_pos_as_xyz
  1  'x, y, z'
loop_
 _atom_site_type_symbol
 _atom_site_label
 _atom_site_symmetry_multiplicity
 _atom_site_fract_x
 _atom_site_fract_y
 _atom_site_fract_z
 _atom_site_occupancy
  V  V0  1  0.87777409  0.00000000  0.00000000  1
  Si  Si1  1  0.52925628  0.50000000  0.50000000  1
  N  N2  1  0.58489639  0.00000000  0.50000000  1
  N  N3  1  0.58489639  0.50000000  0.00000000  1
  O  O4  1  0.05266482  0.50000000  0.50000000  1
