# generated using pymatgen
data_SnPbN3
_symmetry_space_group_name_H-M   'P 1'
_cell_length_a   4.29071938
_cell_length_b   4.29071938
_cell_length_c   4.29071938
_cell_angle_alpha   90.00000000
_cell_angle_beta   90.00000000
_cell_angle_gamma   90.00000000
_symmetry_Int_Tables_number   1
_chemical_formula_structural   SnPbN3
_chemical_formula_sum   'Sn1 Pb1 N3'
_cell_volume   78.99331412
_cell_formula_units_Z   1
loop_
 _symmetry_equiv_pos_site_id
 _symmetry_equiv_pos_as_xyz
  1  'x, y, z'
loop_
 _atom_site_type_symbol
 _atom_site_label
 _atom_site_symmetry_multiplicity
 _atom_site_fract_x
 _atom_site_fract_y
 _atom_site_fract_z
 _atom_site_occupancy
  Pb  Pb0  1  0.00209943  0.00000000  0.00000000  1
  Sn  Sn1  1  0.50162418  0.50000000  0.50000000  1
  N  N2  1  0.49927605  0.00000000  0.50000000  1
  N  N3  1  0.49927605  0.50000000  0.00000000  1
  N  N4  1  0.00173361  0.50000000  0.50000000  1
