# generated using pymatgen
data_SrAlO3
_symmetry_space_group_name_H-M   'P 1'
_cell_length_a   3.85545406
_cell_length_b   3.85545406
_cell_length_c   3.85545406
_cell_angle_alpha   90.00000000
_cell_angle_beta   90.00000000
_cell_angle_gamma   90.00000000
_symmetry_Int_Tables_number   1
_chemical_formula_structural   SrAlO3
_chemical_formula_sum   'Sr1 Al1 O3'
_cell_volume   57.30949729
_cell_formula_units_Z   1
loop_
 _symmetry_equiv_pos_site_id
 _symmetry_equiv_pos_as_xyz
  1  'x, y, z'
loop_
 _atom_site_type_symbol
 _atom_site_label
 _atom_site_symmetry_multiplicity
 _atom_site_fract_x
 _atom_site_fract_y
 _atom_site_fract_z
 _atom_site_occupancy
  Sr  Sr0  1  0.00147839  0.00000000  0.00000000  1
  Al  Al1  1  0.50164632  0.50000000  0.50000000  1
  O  O2  1  0.50291988  0.00000000  0.50000000  1
  O  O3  1  0.50291988  0.50000000  0.00000000  1
  O  O4  1  0.00278917  0.50000000  0.50000000  1
