# generated using pymatgen
data_CsCaO3
_symmetry_space_group_name_H-M   'P 1'
_cell_length_a   4.63452049
_cell_length_b   4.63452049
_cell_length_c   4.63452049
_cell_angle_alpha   90.00000000
_cell_angle_beta   90.00000000
_cell_angle_gamma   90.00000000
_symmetry_Int_Tables_number   1
_chemical_formula_structural   CsCaO3
_chemical_formula_sum   'Cs1 Ca1 O3'
_cell_volume   99.54384665
_cell_formula_units_Z   1
loop_
 _symmetry_equiv_pos_site_id
 _symmetry_equiv_pos_as_xyz
  1  'x, y, z'
loop_
 _atom_site_type_symbol
 _atom_site_label
 _atom_site_symmetry_multiplicity
 _atom_site_fract_x
 _atom_site_fract_y
 _atom_site_fract_z
 _atom_site_occupancy
  Ca  Ca0  1  0.83604871  0.00000000  1.00000000  1
  Cs  Cs1  1  0.56563912  0.50000000  0.50000000  1
  O  O2  1  0.61996175  0.00000000  0.50000000  1
  O  O3  1  0.61996175  0.50000000  0.00000000  1
  O  O4  1  0.07385254  0.50000000  0.50000000  1
