# generated using pymatgen
data_LiAgNOF
_symmetry_space_group_name_H-M   'P 1'
_cell_length_a   4.28830142
_cell_length_b   4.28830142
_cell_length_c   4.28830142
_cell_angle_alpha   90.00000000
_cell_angle_beta   90.00000000
_cell_angle_gamma   90.00000000
_symmetry_Int_Tables_number   1
_chemical_formula_structural   LiAgNOF
_chemical_formula_sum   'Li1 Ag1 N1 O1 F1'
_cell_volume   78.85984371
_cell_formula_units_Z   1
loop_
 _symmetry_equiv_pos_site_id
 _symmetry_equiv_pos_as_xyz
  1  'x, y, z'
loop_
 _atom_site_type_symbol
 _atom_site_label
 _atom_site_symmetry_multiplicity
 _atom_site_fract_x
 _atom_site_fract_y
 _atom_site_fract_z
 _atom_site_occupancy
  Li  Li0  1  0.00022440  0.00000000  0.00000000  1
  Ag  Ag1  1  0.50553845  0.50000000  0.50000000  1
  F  F2  1  0.50005133  0.00000000  0.50000000  1
  N  N3  1  0.49985684  0.50000000  0.00000000  1
  O  O4  1  0.00466260  0.50000000  0.50000000  1
