# generated using pymatgen
data_RbCdN2O
_symmetry_space_group_name_H-M   'P 1'
_cell_length_a   4.42559891
_cell_length_b   4.42559891
_cell_length_c   4.42559891
_cell_angle_alpha   90.00000000
_cell_angle_beta   90.00000000
_cell_angle_gamma   90.00000000
_symmetry_Int_Tables_number   1
_chemical_formula_structural   RbCdN2O
_chemical_formula_sum   'Rb1 Cd1 N2 O1'
_cell_volume   86.67945172
_cell_formula_units_Z   1
loop_
 _symmetry_equiv_pos_site_id
 _symmetry_equiv_pos_as_xyz
  1  'x, y, z'
loop_
 _atom_site_type_symbol
 _atom_site_label
 _atom_site_symmetry_multiplicity
 _atom_site_fract_x
 _atom_site_fract_y
 _atom_site_fract_z
 _atom_site_occupancy
  Cd  Cd0  1  0.00029966  0.00000000  0.00000000  1
  Rb  Rb1  1  0.50462741  0.50000000  0.50000000  1
  N  N2  1  0.50029833  0.00000000  0.50000000  1
  N  N3  1  0.50029833  0.50000000  0.00000000  1
  O  O4  1  0.00516336  0.50000000  0.50000000  1
