# generated using pymatgen
data_HgPdNO2
_symmetry_space_group_name_H-M   'P 1'
_cell_length_a   4.25596835
_cell_length_b   4.25596835
_cell_length_c   4.25596835
_cell_angle_alpha   90.00000000
_cell_angle_beta   90.00000000
_cell_angle_gamma   90.00000000
_symmetry_Int_Tables_number   1
_chemical_formula_structural   HgPdNO2
_chemical_formula_sum   'Hg1 Pd1 N1 O2'
_cell_volume   77.08948939
_cell_formula_units_Z   1
loop_
 _symmetry_equiv_pos_site_id
 _symmetry_equiv_pos_as_xyz
  1  'x, y, z'
loop_
 _atom_site_type_symbol
 _atom_site_label
 _atom_site_symmetry_multiplicity
 _atom_site_fract_x
 _atom_site_fract_y
 _atom_site_fract_z
 _atom_site_occupancy
  Pd  Pd0  1  0.00029895  0.00000000  0.00000000  1
  Hg  Hg1  1  0.50517525  0.50000000  0.50000000  1
  N  N2  1  0.49961062  0.00000000  0.50000000  1
  O  O3  1  0.49995742  0.50000000  0.00000000  1
  O  O4  1  0.00496538  0.50000000  0.50000000  1
