# generated using pymatgen
data_ZrNiN3
_symmetry_space_group_name_H-M   'P 1'
_cell_length_a   4.20938050
_cell_length_b   4.20938050
_cell_length_c   4.20938050
_cell_angle_alpha   90.00000000
_cell_angle_beta   90.00000000
_cell_angle_gamma   90.00000000
_symmetry_Int_Tables_number   1
_chemical_formula_structural   ZrNiN3
_chemical_formula_sum   'Zr1 Ni1 N3'
_cell_volume   74.58552580
_cell_formula_units_Z   1
loop_
 _symmetry_equiv_pos_site_id
 _symmetry_equiv_pos_as_xyz
  1  'x, y, z'
loop_
 _atom_site_type_symbol
 _atom_site_label
 _atom_site_symmetry_multiplicity
 _atom_site_fract_x
 _atom_site_fract_y
 _atom_site_fract_z
 _atom_site_occupancy
  Ni  Ni0  1  0.45677006  0.00000000  0.00000000  1
  Zr  Zr1  1  0.52840381  0.50000000  0.50000000  1
  N  N2  1  0.45474570  1.00000000  0.50000000  1
  N  N3  1  0.45474570  0.50000000  0.00000000  1
  N  N4  1  0.02761365  0.50000000  0.50000000  1
