# generated using pymatgen
data_BRhSO2
_symmetry_space_group_name_H-M   'P 1'
_cell_length_a   4.19101427
_cell_length_b   4.19101427
_cell_length_c   4.19101427
_cell_angle_alpha   90.00000000
_cell_angle_beta   90.00000000
_cell_angle_gamma   90.00000000
_symmetry_Int_Tables_number   1
_chemical_formula_structural   BRhSO2
_chemical_formula_sum   'B1 Rh1 S1 O2'
_cell_volume   73.61349161
_cell_formula_units_Z   1
loop_
 _symmetry_equiv_pos_site_id
 _symmetry_equiv_pos_as_xyz
  1  'x, y, z'
loop_
 _atom_site_type_symbol
 _atom_site_label
 _atom_site_symmetry_multiplicity
 _atom_site_fract_x
 _atom_site_fract_y
 _atom_site_fract_z
 _atom_site_occupancy
  B  B0  1  0.33782183  0.00000000  0.00000000  1
  Rh  Rh1  1  0.51379172  0.50000000  0.50000000  1
  S  S2  1  0.33861720  0.00000000  0.50000000  1
  O  O3  1  0.41006072  0.50000000  0.00000000  1
  O  O4  1  0.96400797  0.50000000  0.50000000  1
