# generated using pymatgen
data_InCuNO2
_symmetry_space_group_name_H-M   'P 1'
_cell_length_a   4.24238930
_cell_length_b   4.24238930
_cell_length_c   4.24238930
_cell_angle_alpha   90.00000000
_cell_angle_beta   90.00000000
_cell_angle_gamma   90.00000000
_symmetry_Int_Tables_number   1
_chemical_formula_structural   InCuNO2
_chemical_formula_sum   'In1 Cu1 N1 O2'
_cell_volume   76.35395843
_cell_formula_units_Z   1
loop_
 _symmetry_equiv_pos_site_id
 _symmetry_equiv_pos_as_xyz
  1  'x, y, z'
loop_
 _atom_site_type_symbol
 _atom_site_label
 _atom_site_symmetry_multiplicity
 _atom_site_fract_x
 _atom_site_fract_y
 _atom_site_fract_z
 _atom_site_occupancy
  Cu  Cu0  1  0.00116472  0.00000000  0.00000000  1
  In  In1  1  0.50001283  0.50000000  0.50000000  1
  N  N2  1  0.49957244  0.00000000  0.50000000  1
  O  O3  1  0.50009593  0.50000000  0.00000000  1
  O  O4  1  0.99989540  0.50000000  0.50000000  1
