# generated using pymatgen
data_SrCdSO2
_symmetry_space_group_name_H-M   'P 1'
_cell_length_a   4.62339897
_cell_length_b   4.62339897
_cell_length_c   4.62339897
_cell_angle_alpha   90.00000000
_cell_angle_beta   90.00000000
_cell_angle_gamma   90.00000000
_symmetry_Int_Tables_number   1
_chemical_formula_structural   SrCdSO2
_chemical_formula_sum   'Sr1 Cd1 S1 O2'
_cell_volume   98.82893490
_cell_formula_units_Z   1
loop_
 _symmetry_equiv_pos_site_id
 _symmetry_equiv_pos_as_xyz
  1  'x, y, z'
loop_
 _atom_site_type_symbol
 _atom_site_label
 _atom_site_symmetry_multiplicity
 _atom_site_fract_x
 _atom_site_fract_y
 _atom_site_fract_z
 _atom_site_occupancy
  Sr  Sr0  1  0.00155390  0.00000000  0.00000000  1
  Cd  Cd1  1  0.51483119  0.50000000  0.50000000  1
  S  S2  1  0.49705214  0.00000000  0.50000000  1
  O  O3  1  0.50114209  0.50000000  0.00000000  1
  O  O4  1  0.00938976  0.50000000  0.50000000  1
