# generated using pymatgen
data_MoPbNO2
_symmetry_space_group_name_H-M   'P 1'
_cell_length_a   4.06684258
_cell_length_b   4.06684258
_cell_length_c   4.06684258
_cell_angle_alpha   90.00000000
_cell_angle_beta   90.00000000
_cell_angle_gamma   90.00000000
_symmetry_Int_Tables_number   1
_chemical_formula_structural   MoPbNO2
_chemical_formula_sum   'Mo1 Pb1 N1 O2'
_cell_volume   67.26235752
_cell_formula_units_Z   1
loop_
 _symmetry_equiv_pos_site_id
 _symmetry_equiv_pos_as_xyz
  1  'x, y, z'
loop_
 _atom_site_type_symbol
 _atom_site_label
 _atom_site_symmetry_multiplicity
 _atom_site_fract_x
 _atom_site_fract_y
 _atom_site_fract_z
 _atom_site_occupancy
  Pb  Pb0  1  0.00056767  0.00000000  0.00000000  1
  Mo  Mo1  1  0.50227313  0.50000000  0.50000000  1
  N  N2  1  0.50348273  0.00000000  0.50000000  1
  O  O3  1  0.50284561  0.50000000  0.00000000  1
  O  O4  1  0.00264208  0.50000000  0.50000000  1
