# generated using pymatgen
data_YAgSO2
_symmetry_space_group_name_H-M   'P 1'
_cell_length_a   4.37490087
_cell_length_b   4.37490087
_cell_length_c   4.37490087
_cell_angle_alpha   90.00000000
_cell_angle_beta   90.00000000
_cell_angle_gamma   90.00000000
_symmetry_Int_Tables_number   1
_chemical_formula_structural   YAgSO2
_chemical_formula_sum   'Y1 Ag1 S1 O2'
_cell_volume   83.73454230
_cell_formula_units_Z   1
loop_
 _symmetry_equiv_pos_site_id
 _symmetry_equiv_pos_as_xyz
  1  'x, y, z'
loop_
 _atom_site_type_symbol
 _atom_site_label
 _atom_site_symmetry_multiplicity
 _atom_site_fract_x
 _atom_site_fract_y
 _atom_site_fract_z
 _atom_site_occupancy
  Y  Y0  1  0.00039129  0.00000000  0.00000000  1
  Ag  Ag1  1  0.50497460  0.50000000  0.50000000  1
  S  S2  1  0.49908530  0.00000000  0.50000000  1
  O  O3  1  0.50058761  0.50000000  0.00000000  1
  O  O4  1  0.00490637  0.50000000  0.50000000  1
