# generated using pymatgen
data_MgAuSO2
_symmetry_space_group_name_H-M   'P 1'
_cell_length_a   4.36953223
_cell_length_b   4.36953223
_cell_length_c   4.36953223
_cell_angle_alpha   90.00000000
_cell_angle_beta   90.00000000
_cell_angle_gamma   90.00000000
_symmetry_Int_Tables_number   1
_chemical_formula_structural   MgAuSO2
_chemical_formula_sum   'Mg1 Au1 S1 O2'
_cell_volume   83.42665692
_cell_formula_units_Z   1
loop_
 _symmetry_equiv_pos_site_id
 _symmetry_equiv_pos_as_xyz
  1  'x, y, z'
loop_
 _atom_site_type_symbol
 _atom_site_label
 _atom_site_symmetry_multiplicity
 _atom_site_fract_x
 _atom_site_fract_y
 _atom_site_fract_z
 _atom_site_occupancy
  Mg  Mg0  1  0.08437504  1.00000000  0.00000000  1
  Au  Au1  1  0.56665346  0.50000000  0.50000000  1
  S  S2  1  0.28887539  0.00000000  0.50000000  1
  O  O3  1  0.51597500  0.50000000  0.00000000  1
  O  O4  1  0.04596068  0.50000000  0.50000000  1
