# generated using pymatgen
data_NbPtO3
_symmetry_space_group_name_H-M   'P 1'
_cell_length_a   4.09456157
_cell_length_b   4.09456157
_cell_length_c   4.09456157
_cell_angle_alpha   90.00000000
_cell_angle_beta   90.00000000
_cell_angle_gamma   90.00000000
_symmetry_Int_Tables_number   1
_chemical_formula_structural   NbPtO3
_chemical_formula_sum   'Nb1 Pt1 O3'
_cell_volume   68.64710361
_cell_formula_units_Z   1
loop_
 _symmetry_equiv_pos_site_id
 _symmetry_equiv_pos_as_xyz
  1  'x, y, z'
loop_
 _atom_site_type_symbol
 _atom_site_label
 _atom_site_symmetry_multiplicity
 _atom_site_fract_x
 _atom_site_fract_y
 _atom_site_fract_z
 _atom_site_occupancy
  Nb  Nb0  1  0.20647902  0.00000000  0.00000000  1
  Pt  Pt1  1  0.53684093  0.50000000  0.50000000  1
  O  O2  1  0.44180590  0.00000000  0.50000000  1
  O  O3  1  0.44180590  0.50000000  0.00000000  1
  O  O4  1  0.03255027  0.50000000  0.50000000  1
