# generated using pymatgen
data_RbYN2O
_symmetry_space_group_name_H-M   'P 1'
_cell_length_a   4.61135035
_cell_length_b   4.61135035
_cell_length_c   4.61135035
_cell_angle_alpha   90.00000000
_cell_angle_beta   90.00000000
_cell_angle_gamma   90.00000000
_symmetry_Int_Tables_number   1
_chemical_formula_structural   RbYN2O
_chemical_formula_sum   'Rb1 Y1 N2 O1'
_cell_volume   98.05829953
_cell_formula_units_Z   1
loop_
 _symmetry_equiv_pos_site_id
 _symmetry_equiv_pos_as_xyz
  1  'x, y, z'
loop_
 _atom_site_type_symbol
 _atom_site_label
 _atom_site_symmetry_multiplicity
 _atom_site_fract_x
 _atom_site_fract_y
 _atom_site_fract_z
 _atom_site_occupancy
  Rb  Rb0  1  0.00109214  0.00000000  0.00000000  1
  Y  Y1  1  0.50412283  0.50000000  0.50000000  1
  N  N2  1  0.50044163  0.00000000  0.50000000  1
  N  N3  1  0.50044163  0.50000000  0.00000000  1
  O  O4  1  0.00426734  0.50000000  0.50000000  1
