# generated using pymatgen
data_RbSbNO2
_symmetry_space_group_name_H-M   'P 1'
_cell_length_a   4.17798101
_cell_length_b   4.17798101
_cell_length_c   4.17798101
_cell_angle_alpha   90.00000000
_cell_angle_beta   90.00000000
_cell_angle_gamma   90.00000000
_symmetry_Int_Tables_number   1
_chemical_formula_structural   RbSbNO2
_chemical_formula_sum   'Rb1 Sb1 N1 O2'
_cell_volume   72.92885349
_cell_formula_units_Z   1
loop_
 _symmetry_equiv_pos_site_id
 _symmetry_equiv_pos_as_xyz
  1  'x, y, z'
loop_
 _atom_site_type_symbol
 _atom_site_label
 _atom_site_symmetry_multiplicity
 _atom_site_fract_x
 _atom_site_fract_y
 _atom_site_fract_z
 _atom_site_occupancy
  Rb  Rb0  1  0.00125558  0.00000000  0.00000000  1
  Sb  Sb1  1  0.50481604  0.50000000  0.50000000  1
  N  N2  1  0.49980182  0.00000000  0.50000000  1
  O  O3  1  0.50020890  0.50000000  0.00000000  1
  O  O4  1  0.00401856  0.50000000  0.50000000  1
