# generated using pymatgen
data_MgTlO3
_symmetry_space_group_name_H-M   'P 1'
_cell_length_a   4.19636367
_cell_length_b   4.19636367
_cell_length_c   4.19636367
_cell_angle_alpha   90.00000000
_cell_angle_beta   90.00000000
_cell_angle_gamma   90.00000000
_symmetry_Int_Tables_number   1
_chemical_formula_structural   MgTlO3
_chemical_formula_sum   'Mg1 Tl1 O3'
_cell_volume   73.89573186
_cell_formula_units_Z   1
loop_
 _symmetry_equiv_pos_site_id
 _symmetry_equiv_pos_as_xyz
  1  'x, y, z'
loop_
 _atom_site_type_symbol
 _atom_site_label
 _atom_site_symmetry_multiplicity
 _atom_site_fract_x
 _atom_site_fract_y
 _atom_site_fract_z
 _atom_site_occupancy
  Mg  Mg0  1  0.00231085  0.00000000  0.00000000  1
  Tl  Tl1  1  0.50078762  0.50000000  0.50000000  1
  O  O2  1  0.50143918  0.00000000  0.50000000  1
  O  O3  1  0.50143918  0.50000000  0.00000000  1
  O  O4  1  0.00110244  0.50000000  0.50000000  1
