# generated using pymatgen
data_RuWO2F
_symmetry_space_group_name_H-M   'P 1'
_cell_length_a   4.09464044
_cell_length_b   4.09464044
_cell_length_c   4.09464044
_cell_angle_alpha   90.00000000
_cell_angle_beta   90.00000000
_cell_angle_gamma   90.00000000
_symmetry_Int_Tables_number   1
_chemical_formula_structural   RuWO2F
_chemical_formula_sum   'Ru1 W1 O2 F1'
_cell_volume   68.65107070
_cell_formula_units_Z   1
loop_
 _symmetry_equiv_pos_site_id
 _symmetry_equiv_pos_as_xyz
  1  'x, y, z'
loop_
 _atom_site_type_symbol
 _atom_site_label
 _atom_site_symmetry_multiplicity
 _atom_site_fract_x
 _atom_site_fract_y
 _atom_site_fract_z
 _atom_site_occupancy
  W  W0  1  0.00054463  0.00000000  0.00000000  1
  Ru  Ru1  1  0.50482760  0.50000000  0.50000000  1
  F  F2  1  0.49960616  0.00000000  0.50000000  1
  O  O3  1  0.49958493  0.50000000  0.00000000  1
  O  O4  1  0.00501931  0.50000000  0.50000000  1
