# generated using pymatgen
data_AlCoO3
_symmetry_space_group_name_H-M   'P 1'
_cell_length_a   3.67839826
_cell_length_b   3.67839826
_cell_length_c   3.67839826
_cell_angle_alpha   90.00000000
_cell_angle_beta   90.00000000
_cell_angle_gamma   90.00000000
_symmetry_Int_Tables_number   1
_chemical_formula_structural   AlCoO3
_chemical_formula_sum   'Al1 Co1 O3'
_cell_volume   49.77098600
_cell_formula_units_Z   1
loop_
 _symmetry_equiv_pos_site_id
 _symmetry_equiv_pos_as_xyz
  1  'x, y, z'
loop_
 _atom_site_type_symbol
 _atom_site_label
 _atom_site_symmetry_multiplicity
 _atom_site_fract_x
 _atom_site_fract_y
 _atom_site_fract_z
 _atom_site_occupancy
  Co  Co0  1  0.00155535  0.00000000  0.00000000  1
  Al  Al1  1  0.50186647  0.50000000  0.50000000  1
  O  O2  1  0.50245555  0.00000000  0.50000000  1
  O  O3  1  0.50245555  0.50000000  0.00000000  1
  O  O4  1  0.00218802  0.50000000  0.50000000  1
