# generated using pymatgen
data_CrInSO2
_symmetry_space_group_name_H-M   'P 1'
_cell_length_a   4.20407291
_cell_length_b   4.20407291
_cell_length_c   4.20407291
_cell_angle_alpha   90.00000000
_cell_angle_beta   90.00000000
_cell_angle_gamma   90.00000000
_symmetry_Int_Tables_number   1
_chemical_formula_structural   CrInSO2
_chemical_formula_sum   'Cr1 In1 S1 O2'
_cell_volume   74.30374768
_cell_formula_units_Z   1
loop_
 _symmetry_equiv_pos_site_id
 _symmetry_equiv_pos_as_xyz
  1  'x, y, z'
loop_
 _atom_site_type_symbol
 _atom_site_label
 _atom_site_symmetry_multiplicity
 _atom_site_fract_x
 _atom_site_fract_y
 _atom_site_fract_z
 _atom_site_occupancy
  In  In0  1  0.91779139  0.00000000  0.00000000  1
  Cr  Cr1  1  0.56854480  0.50000000  0.50000000  1
  S  S2  1  0.35301904  0.00000000  0.50000000  1
  O  O3  1  0.61120415  0.50000000  0.00000000  1
  O  O4  1  0.99659283  0.50000000  0.50000000  1
