# generated using pymatgen
data_AlCuN3
_symmetry_space_group_name_H-M   'P 1'
_cell_length_a   3.81873355
_cell_length_b   3.81873355
_cell_length_c   3.81873355
_cell_angle_alpha   90.00000000
_cell_angle_beta   90.00000000
_cell_angle_gamma   90.00000000
_symmetry_Int_Tables_number   1
_chemical_formula_structural   AlCuN3
_chemical_formula_sum   'Al1 Cu1 N3'
_cell_volume   55.68754468
_cell_formula_units_Z   1
loop_
 _symmetry_equiv_pos_site_id
 _symmetry_equiv_pos_as_xyz
  1  'x, y, z'
loop_
 _atom_site_type_symbol
 _atom_site_label
 _atom_site_symmetry_multiplicity
 _atom_site_fract_x
 _atom_site_fract_y
 _atom_site_fract_z
 _atom_site_occupancy
  Al  Al0  1  0.24779649  0.00000000  1.00000000  1
  Cu  Cu1  1  0.58689678  0.50000000  0.50000000  1
  N  N2  1  0.25464465  0.00000000  0.50000000  1
  N  N3  1  0.25464465  0.50000000  0.00000000  1
  N  N4  1  0.07860359  0.50000000  0.50000000  1
