# generated using pymatgen
data_ZrTaSO2
_symmetry_space_group_name_H-M   'P 1'
_cell_length_a   4.45326965
_cell_length_b   4.45326965
_cell_length_c   4.45326965
_cell_angle_alpha   90.00000000
_cell_angle_beta   90.00000000
_cell_angle_gamma   90.00000000
_symmetry_Int_Tables_number   1
_chemical_formula_structural   ZrTaSO2
_chemical_formula_sum   'Zr1 Ta1 S1 O2'
_cell_volume   88.31550944
_cell_formula_units_Z   1
loop_
 _symmetry_equiv_pos_site_id
 _symmetry_equiv_pos_as_xyz
  1  'x, y, z'
loop_
 _atom_site_type_symbol
 _atom_site_label
 _atom_site_symmetry_multiplicity
 _atom_site_fract_x
 _atom_site_fract_y
 _atom_site_fract_z
 _atom_site_occupancy
  Ta  Ta0  1  0.31861468  1.00000000  1.00000000  1
  Zr  Zr1  1  0.40924993  0.50000000  0.50000000  1
  S  S2  1  0.11705909  1.00000000  0.50000000  1
  O  O3  1  0.35936217  0.50000000  0.00000000  1
  O  O4  1  0.83324280  0.50000000  0.50000000  1
