# generated using pymatgen
data_MgIrNO2
_symmetry_space_group_name_H-M   'P 1'
_cell_length_a   3.93109308
_cell_length_b   3.93109308
_cell_length_c   3.93109308
_cell_angle_alpha   90.00000000
_cell_angle_beta   90.00000000
_cell_angle_gamma   90.00000000
_symmetry_Int_Tables_number   1
_chemical_formula_structural   MgIrNO2
_chemical_formula_sum   'Mg1 Ir1 N1 O2'
_cell_volume   60.74911851
_cell_formula_units_Z   1
loop_
 _symmetry_equiv_pos_site_id
 _symmetry_equiv_pos_as_xyz
  1  'x, y, z'
loop_
 _atom_site_type_symbol
 _atom_site_label
 _atom_site_symmetry_multiplicity
 _atom_site_fract_x
 _atom_site_fract_y
 _atom_site_fract_z
 _atom_site_occupancy
  Ir  Ir0  1  0.21252897  1.00000000  1.00000000  1
  Mg  Mg1  1  0.52642004  0.50000000  0.50000000  1
  N  N2  1  0.17651697  0.00000000  0.50000000  1
  O  O3  1  0.43814619  0.50000000  0.00000000  1
  O  O4  1  0.01250030  0.50000000  0.50000000  1
