# generated using pymatgen
data_PtAuNO2
_symmetry_space_group_name_H-M   'P 1'
_cell_length_a   4.13407429
_cell_length_b   4.13407429
_cell_length_c   4.13407429
_cell_angle_alpha   90.00000000
_cell_angle_beta   90.00000000
_cell_angle_gamma   90.00000000
_symmetry_Int_Tables_number   1
_chemical_formula_structural   PtAuNO2
_chemical_formula_sum   'Pt1 Au1 N1 O2'
_cell_volume   70.65368677
_cell_formula_units_Z   1
loop_
 _symmetry_equiv_pos_site_id
 _symmetry_equiv_pos_as_xyz
  1  'x, y, z'
loop_
 _atom_site_type_symbol
 _atom_site_label
 _atom_site_symmetry_multiplicity
 _atom_site_fract_x
 _atom_site_fract_y
 _atom_site_fract_z
 _atom_site_occupancy
  Pt  Pt0  1  0.26877427  0.00000000  0.00000000  1
  Au  Au1  1  0.59152594  0.50000000  0.50000000  1
  N  N2  1  0.22598819  0.00000000  0.50000000  1
  O  O3  1  0.44009552  0.50000000  0.00000000  1
  O  O4  1  0.07411858  0.50000000  0.50000000  1
