# generated using pymatgen
data_CoPtN3
_symmetry_space_group_name_H-M   'P 1'
_cell_length_a   3.92780950
_cell_length_b   3.92780950
_cell_length_c   3.92780950
_cell_angle_alpha   90.00000000
_cell_angle_beta   90.00000000
_cell_angle_gamma   90.00000000
_symmetry_Int_Tables_number   1
_chemical_formula_structural   CoPtN3
_chemical_formula_sum   'Co1 Pt1 N3'
_cell_volume   60.59701753
_cell_formula_units_Z   1
loop_
 _symmetry_equiv_pos_site_id
 _symmetry_equiv_pos_as_xyz
  1  'x, y, z'
loop_
 _atom_site_type_symbol
 _atom_site_label
 _atom_site_symmetry_multiplicity
 _atom_site_fract_x
 _atom_site_fract_y
 _atom_site_fract_z
 _atom_site_occupancy
  Co  Co0  1  0.30660715  0.00000000  0.00000000  1
  Pt  Pt1  1  0.53637871  0.50000000  0.50000000  1
  N  N2  1  0.33391874  0.00000000  0.50000000  1
  N  N3  1  0.33391874  0.50000000  0.00000000  1
  N  N4  1  0.99838949  0.50000000  0.50000000  1
