# generated using pymatgen
data_MgBN3
_symmetry_space_group_name_H-M   'P 1'
_cell_length_a   3.43056389
_cell_length_b   3.43056389
_cell_length_c   3.43056389
_cell_angle_alpha   90.00000000
_cell_angle_beta   90.00000000
_cell_angle_gamma   90.00000000
_symmetry_Int_Tables_number   1
_chemical_formula_structural   MgBN3
_chemical_formula_sum   'Mg1 B1 N3'
_cell_volume   40.37351269
_cell_formula_units_Z   1
loop_
 _symmetry_equiv_pos_site_id
 _symmetry_equiv_pos_as_xyz
  1  'x, y, z'
loop_
 _atom_site_type_symbol
 _atom_site_label
 _atom_site_symmetry_multiplicity
 _atom_site_fract_x
 _atom_site_fract_y
 _atom_site_fract_z
 _atom_site_occupancy
  Mg  Mg0  1  0.01686798  0.00000000  0.00000000  1
  B  B1  1  0.53759598  0.50000000  0.50000000  1
  N  N2  1  0.48699752  0.00000000  0.50000000  1
  N  N3  1  0.48699752  0.50000000  0.00000000  1
  N  N4  1  0.98273848  0.50000000  0.50000000  1
