# generated using pymatgen
data_TiCrNO2
_symmetry_space_group_name_H-M   'P 1'
_cell_length_a   3.91388163
_cell_length_b   3.91388163
_cell_length_c   3.91388163
_cell_angle_alpha   90.00000000
_cell_angle_beta   90.00000000
_cell_angle_gamma   90.00000000
_symmetry_Int_Tables_number   1
_chemical_formula_structural   TiCrNO2
_chemical_formula_sum   'Ti1 Cr1 N1 O2'
_cell_volume   59.95467598
_cell_formula_units_Z   1
loop_
 _symmetry_equiv_pos_site_id
 _symmetry_equiv_pos_as_xyz
  1  'x, y, z'
loop_
 _atom_site_type_symbol
 _atom_site_label
 _atom_site_symmetry_multiplicity
 _atom_site_fract_x
 _atom_site_fract_y
 _atom_site_fract_z
 _atom_site_occupancy
  Cr  Cr0  1  0.32952647  1.00000000  1.00000000  1
  Ti  Ti1  1  0.47366262  0.50000000  0.50000000  1
  N  N2  1  0.34203255  0.00000000  0.50000000  1
  O  O3  1  0.36277878  0.50000000  0.00000000  1
  O  O4  1  0.91742591  0.50000000  0.50000000  1
