# generated using pymatgen
data_PbAuN2O
_symmetry_space_group_name_H-M   'P 1'
_cell_length_a   4.35705116
_cell_length_b   4.35705116
_cell_length_c   4.35705116
_cell_angle_alpha   90.00000000
_cell_angle_beta   90.00000000
_cell_angle_gamma   90.00000000
_symmetry_Int_Tables_number   1
_chemical_formula_structural   PbAuN2O
_chemical_formula_sum   'Pb1 Au1 N2 O1'
_cell_volume   82.71380096
_cell_formula_units_Z   1
loop_
 _symmetry_equiv_pos_site_id
 _symmetry_equiv_pos_as_xyz
  1  'x, y, z'
loop_
 _atom_site_type_symbol
 _atom_site_label
 _atom_site_symmetry_multiplicity
 _atom_site_fract_x
 _atom_site_fract_y
 _atom_site_fract_z
 _atom_site_occupancy
  Au  Au0  1  0.58507361  1.00000000  0.00000000  1
  Pb  Pb1  1  0.86442773  0.50000000  0.50000000  1
  N  N2  1  0.69733584  0.00000000  0.50000000  1
  N  N3  1  0.69733584  0.50000000  0.00000000  1
  O  O4  1  0.34025446  0.50000000  0.50000000  1
