# generated using pymatgen
data_NaPtNO2
_symmetry_space_group_name_H-M   'P 1'
_cell_length_a   3.98103035
_cell_length_b   3.98103035
_cell_length_c   3.98103035
_cell_angle_alpha   90.00000000
_cell_angle_beta   90.00000000
_cell_angle_gamma   90.00000000
_symmetry_Int_Tables_number   1
_chemical_formula_structural   NaPtNO2
_chemical_formula_sum   'Na1 Pt1 N1 O2'
_cell_volume   63.09376803
_cell_formula_units_Z   1
loop_
 _symmetry_equiv_pos_site_id
 _symmetry_equiv_pos_as_xyz
  1  'x, y, z'
loop_
 _atom_site_type_symbol
 _atom_site_label
 _atom_site_symmetry_multiplicity
 _atom_site_fract_x
 _atom_site_fract_y
 _atom_site_fract_z
 _atom_site_occupancy
  Na  Na0  1  0.00047824  0.00000000  0.00000000  1
  Pt  Pt1  1  0.50671854  0.50000000  0.50000000  1
  N  N2  1  0.49884991  0.00000000  0.50000000  1
  O  O3  1  0.49931402  0.50000000  0.00000000  1
  O  O4  1  0.00409319  0.50000000  0.50000000  1
