# generated using pymatgen
data_TaInN3
_symmetry_space_group_name_H-M   'P 1'
_cell_length_a   4.18328949
_cell_length_b   4.18328949
_cell_length_c   4.18328949
_cell_angle_alpha   90.00000000
_cell_angle_beta   90.00000000
_cell_angle_gamma   90.00000000
_symmetry_Int_Tables_number   1
_chemical_formula_structural   TaInN3
_chemical_formula_sum   'Ta1 In1 N3'
_cell_volume   73.20719383
_cell_formula_units_Z   1
loop_
 _symmetry_equiv_pos_site_id
 _symmetry_equiv_pos_as_xyz
  1  'x, y, z'
loop_
 _atom_site_type_symbol
 _atom_site_label
 _atom_site_symmetry_multiplicity
 _atom_site_fract_x
 _atom_site_fract_y
 _atom_site_fract_z
 _atom_site_occupancy
  Ta  Ta0  1  0.18541867  0.00000000  1.00000000  1
  In  In1  1  0.52220964  0.50000000  0.50000000  1
  N  N2  1  0.30787453  0.00000000  0.50000000  1
  N  N3  1  0.30787453  0.50000000  0.00000000  1
  N  N4  1  0.00052794  0.50000000  0.50000000  1
