# generated using pymatgen
data_CaGeN3
_symmetry_space_group_name_H-M   'P 1'
_cell_length_a   4.17635280
_cell_length_b   4.17635280
_cell_length_c   4.17635280
_cell_angle_alpha   90.00000000
_cell_angle_beta   90.00000000
_cell_angle_gamma   90.00000000
_symmetry_Int_Tables_number   1
_chemical_formula_structural   CaGeN3
_chemical_formula_sum   'Ca1 Ge1 N3'
_cell_volume   72.84362265
_cell_formula_units_Z   1
loop_
 _symmetry_equiv_pos_site_id
 _symmetry_equiv_pos_as_xyz
  1  'x, y, z'
loop_
 _atom_site_type_symbol
 _atom_site_label
 _atom_site_symmetry_multiplicity
 _atom_site_fract_x
 _atom_site_fract_y
 _atom_site_fract_z
 _atom_site_occupancy
  Ge  Ge0  1  0.24322845  0.00000000  0.00000000  1
  Ca  Ca1  1  0.71751912  0.50000000  0.50000000  1
  N  N2  1  0.27192576  0.00000000  0.50000000  1
  N  N3  1  0.27192576  0.50000000  0.00000000  1
  N  N4  1  0.21967075  0.50000000  0.50000000  1
