# generated using pymatgen
data_NbPdO3
_symmetry_space_group_name_H-M   'P 1'
_cell_length_a   3.94450505
_cell_length_b   3.94450505
_cell_length_c   3.94450505
_cell_angle_alpha   90.00000000
_cell_angle_beta   90.00000000
_cell_angle_gamma   90.00000000
_symmetry_Int_Tables_number   1
_chemical_formula_structural   NbPdO3
_chemical_formula_sum   'Nb1 Pd1 O3'
_cell_volume   61.37302771
_cell_formula_units_Z   1
loop_
 _symmetry_equiv_pos_site_id
 _symmetry_equiv_pos_as_xyz
  1  'x, y, z'
loop_
 _atom_site_type_symbol
 _atom_site_label
 _atom_site_symmetry_multiplicity
 _atom_site_fract_x
 _atom_site_fract_y
 _atom_site_fract_z
 _atom_site_occupancy
  Nb  Nb0  1  0.00048673  0.00000000  0.00000000  1
  Pd  Pd1  1  0.50496388  0.50000000  0.50000000  1
  O  O2  1  0.49993257  0.00000000  0.50000000  1
  O  O3  1  0.49993257  0.50000000  0.00000000  1
  O  O4  1  0.00490196  0.50000000  0.50000000  1
