# generated using pymatgen
data_BiPdN3
_symmetry_space_group_name_H-M   'P 1'
_cell_length_a   4.33006067
_cell_length_b   4.33006067
_cell_length_c   4.33006067
_cell_angle_alpha   90.00000000
_cell_angle_beta   90.00000000
_cell_angle_gamma   90.00000000
_symmetry_Int_Tables_number   1
_chemical_formula_structural   BiPdN3
_chemical_formula_sum   'Bi1 Pd1 N3'
_cell_volume   81.18614943
_cell_formula_units_Z   1
loop_
 _symmetry_equiv_pos_site_id
 _symmetry_equiv_pos_as_xyz
  1  'x, y, z'
loop_
 _atom_site_type_symbol
 _atom_site_label
 _atom_site_symmetry_multiplicity
 _atom_site_fract_x
 _atom_site_fract_y
 _atom_site_fract_z
 _atom_site_occupancy
  Pd  Pd0  1  0.26169826  0.00000000  0.00000000  1
  Bi  Bi1  1  0.52953366  0.50000000  0.50000000  1
  N  N2  1  0.36061288  0.00000000  0.50000000  1
  N  N3  1  0.36061288  0.50000000  0.00000000  1
  N  N4  1  0.01648474  0.50000000  0.50000000  1
