# generated using pymatgen
data_BaVO3
_symmetry_space_group_name_H-M   'P 1'
_cell_length_a   4.50406758
_cell_length_b   4.50406758
_cell_length_c   4.50406758
_cell_angle_alpha   90.00000000
_cell_angle_beta   90.00000000
_cell_angle_gamma   90.00000000
_symmetry_Int_Tables_number   1
_chemical_formula_structural   BaVO3
_chemical_formula_sum   'Ba1 V1 O3'
_cell_volume   91.37232919
_cell_formula_units_Z   1
loop_
 _symmetry_equiv_pos_site_id
 _symmetry_equiv_pos_as_xyz
  1  'x, y, z'
loop_
 _atom_site_type_symbol
 _atom_site_label
 _atom_site_symmetry_multiplicity
 _atom_site_fract_x
 _atom_site_fract_y
 _atom_site_fract_z
 _atom_site_occupancy
  V  V0  1  0.27101116  0.00000000  0.00000000  1
  Ba  Ba1  1  0.56270111  0.50000000  0.50000000  1
  O  O2  1  0.31144584  0.00000000  0.50000000  1
  O  O3  1  0.31144584  0.50000000  0.00000000  1
  O  O4  1  0.05063526  0.50000000  0.50000000  1
