# generated using pymatgen
data_RbBeNO2
_symmetry_space_group_name_H-M   'P 1'
_cell_length_a   3.95066842
_cell_length_b   3.95066842
_cell_length_c   3.95066842
_cell_angle_alpha   90.00000000
_cell_angle_beta   90.00000000
_cell_angle_gamma   90.00000000
_symmetry_Int_Tables_number   1
_chemical_formula_structural   RbBeNO2
_chemical_formula_sum   'Rb1 Be1 N1 O2'
_cell_volume   61.66116732
_cell_formula_units_Z   1
loop_
 _symmetry_equiv_pos_site_id
 _symmetry_equiv_pos_as_xyz
  1  'x, y, z'
loop_
 _atom_site_type_symbol
 _atom_site_label
 _atom_site_symmetry_multiplicity
 _atom_site_fract_x
 _atom_site_fract_y
 _atom_site_fract_z
 _atom_site_occupancy
  Rb  Rb0  1  0.01225353  0.00000000  1.00000000  1
  Be  Be1  1  0.54354945  0.50000000  0.50000000  1
  N  N2  1  0.50341824  0.00000000  0.50000000  1
  O  O3  1  0.50654905  0.50000000  0.00000000  1
  O  O4  1  0.97548858  0.50000000  0.50000000  1
