# generated using pymatgen
data_ZnGaO3
_symmetry_space_group_name_H-M   'P 1'
_cell_length_a   3.91189279
_cell_length_b   3.91189279
_cell_length_c   3.91189279
_cell_angle_alpha   90.00000000
_cell_angle_beta   90.00000000
_cell_angle_gamma   90.00000000
_symmetry_Int_Tables_number   1
_chemical_formula_structural   ZnGaO3
_chemical_formula_sum   'Zn1 Ga1 O3'
_cell_volume   59.86332458
_cell_formula_units_Z   1
loop_
 _symmetry_equiv_pos_site_id
 _symmetry_equiv_pos_as_xyz
  1  'x, y, z'
loop_
 _atom_site_type_symbol
 _atom_site_label
 _atom_site_symmetry_multiplicity
 _atom_site_fract_x
 _atom_site_fract_y
 _atom_site_fract_z
 _atom_site_occupancy
  Ga  Ga0  1  0.79681774  1.00000000  0.00000000  1
  Zn  Zn1  1  0.52576667  0.50000000  0.50000000  1
  O  O2  1  0.61580818  0.00000000  0.50000000  1
  O  O3  1  0.61580818  0.50000000  0.00000000  1
  O  O4  1  0.04484492  0.50000000  0.50000000  1
