# generated using pymatgen
data_InPdO3
_symmetry_space_group_name_H-M   'P 1'
_cell_length_a   4.03297943
_cell_length_b   4.03297943
_cell_length_c   4.03297943
_cell_angle_alpha   90.00000000
_cell_angle_beta   90.00000000
_cell_angle_gamma   90.00000000
_symmetry_Int_Tables_number   1
_chemical_formula_structural   InPdO3
_chemical_formula_sum   'In1 Pd1 O3'
_cell_volume   65.59609999
_cell_formula_units_Z   1
loop_
 _symmetry_equiv_pos_site_id
 _symmetry_equiv_pos_as_xyz
  1  'x, y, z'
loop_
 _atom_site_type_symbol
 _atom_site_label
 _atom_site_symmetry_multiplicity
 _atom_site_fract_x
 _atom_site_fract_y
 _atom_site_fract_z
 _atom_site_occupancy
  In  In0  1  0.23148995  1.00000000  0.00000000  1
  Pd  Pd1  1  0.59161586  0.50000000  0.50000000  1
  O  O2  1  0.51404281  0.00000000  0.50000000  1
  O  O3  1  0.51404281  0.50000000  0.00000000  1
  O  O4  1  0.08541654  0.50000000  0.50000000  1
