# generated using pymatgen
data_BOsN2O
_symmetry_space_group_name_H-M   'P 1'
_cell_length_a   3.47726789
_cell_length_b   3.47726789
_cell_length_c   3.47726789
_cell_angle_alpha   90.00000000
_cell_angle_beta   90.00000000
_cell_angle_gamma   90.00000000
_symmetry_Int_Tables_number   1
_chemical_formula_structural   BOsN2O
_chemical_formula_sum   'B1 Os1 N2 O1'
_cell_volume   42.04500908
_cell_formula_units_Z   1
loop_
 _symmetry_equiv_pos_site_id
 _symmetry_equiv_pos_as_xyz
  1  'x, y, z'
loop_
 _atom_site_type_symbol
 _atom_site_label
 _atom_site_symmetry_multiplicity
 _atom_site_fract_x
 _atom_site_fract_y
 _atom_site_fract_z
 _atom_site_occupancy
  Os  Os0  1  0.11883495  0.00000000  0.00000000  1
  B  B1  1  0.55021844  0.50000000  0.50000000  1
  N  N2  1  0.44305798  0.00000000  0.50000000  1
  N  N3  1  0.44305798  0.50000000  0.00000000  1
  O  O4  1  0.95738912  0.50000000  0.50000000  1
