# generated using pymatgen
data_MnPtN3
_symmetry_space_group_name_H-M   'P 1'
_cell_length_a   3.99943770
_cell_length_b   3.99943770
_cell_length_c   3.99943770
_cell_angle_alpha   90.00000000
_cell_angle_beta   90.00000000
_cell_angle_gamma   90.00000000
_symmetry_Int_Tables_number   1
_chemical_formula_structural   MnPtN3
_chemical_formula_sum   'Mn1 Pt1 N3'
_cell_volume   63.97301330
_cell_formula_units_Z   1
loop_
 _symmetry_equiv_pos_site_id
 _symmetry_equiv_pos_as_xyz
  1  'x, y, z'
loop_
 _atom_site_type_symbol
 _atom_site_label
 _atom_site_symmetry_multiplicity
 _atom_site_fract_x
 _atom_site_fract_y
 _atom_site_fract_z
 _atom_site_occupancy
  Mn  Mn0  1  0.23709753  0.00000000  0.00000000  1
  Pt  Pt1  1  0.49749620  0.50000000  0.50000000  1
  N  N2  1  0.34217882  0.00000000  0.50000000  1
  N  N3  1  0.34217882  0.50000000  0.00000000  1
  N  N4  1  0.97044863  0.50000000  0.50000000  1
