# generated using pymatgen
data_HfOsO3
_symmetry_space_group_name_H-M   'P 1'
_cell_length_a   4.05825274
_cell_length_b   4.05825274
_cell_length_c   4.05825274
_cell_angle_alpha   90.00000000
_cell_angle_beta   90.00000000
_cell_angle_gamma   90.00000000
_symmetry_Int_Tables_number   1
_chemical_formula_structural   HfOsO3
_chemical_formula_sum   'Hf1 Os1 O3'
_cell_volume   66.83704965
_cell_formula_units_Z   1
loop_
 _symmetry_equiv_pos_site_id
 _symmetry_equiv_pos_as_xyz
  1  'x, y, z'
loop_
 _atom_site_type_symbol
 _atom_site_label
 _atom_site_symmetry_multiplicity
 _atom_site_fract_x
 _atom_site_fract_y
 _atom_site_fract_z
 _atom_site_occupancy
  Hf  Hf0  1  0.22505843  0.00000000  0.00000000  1
  Os  Os1  1  0.51668749  0.50000000  0.50000000  1
  O  O2  1  0.40462368  0.00000000  0.50000000  1
  O  O3  1  0.40462368  0.50000000  0.00000000  1
  O  O4  1  0.01392554  0.50000000  0.50000000  1
