# generated using pymatgen
data_NbGaN3
_symmetry_space_group_name_H-M   'P 1'
_cell_length_a   3.93376180
_cell_length_b   3.93376180
_cell_length_c   3.93376180
_cell_angle_alpha   90.00000000
_cell_angle_beta   90.00000000
_cell_angle_gamma   90.00000000
_symmetry_Int_Tables_number   1
_chemical_formula_structural   NbGaN3
_chemical_formula_sum   'Nb1 Ga1 N3'
_cell_volume   60.87292595
_cell_formula_units_Z   1
loop_
 _symmetry_equiv_pos_site_id
 _symmetry_equiv_pos_as_xyz
  1  'x, y, z'
loop_
 _atom_site_type_symbol
 _atom_site_label
 _atom_site_symmetry_multiplicity
 _atom_site_fract_x
 _atom_site_fract_y
 _atom_site_fract_z
 _atom_site_occupancy
  Nb  Nb0  1  0.16912585  0.00000000  0.00000000  1
  Ga  Ga1  1  0.51805759  0.50000000  0.50000000  1
  N  N2  1  0.40707386  0.00000000  0.50000000  1
  N  N3  1  0.40707386  0.50000000  0.00000000  1
  N  N4  1  0.99710789  0.50000000  0.50000000  1
