# generated using pymatgen
data_RbMnO2F
_symmetry_space_group_name_H-M   'P 1'
_cell_length_a   4.02122644
_cell_length_b   4.02122644
_cell_length_c   4.02122644
_cell_angle_alpha   90.00000000
_cell_angle_beta   90.00000000
_cell_angle_gamma   90.00000000
_symmetry_Int_Tables_number   1
_chemical_formula_structural   RbMnO2F
_chemical_formula_sum   'Rb1 Mn1 O2 F1'
_cell_volume   65.02428550
_cell_formula_units_Z   1
loop_
 _symmetry_equiv_pos_site_id
 _symmetry_equiv_pos_as_xyz
  1  'x, y, z'
loop_
 _atom_site_type_symbol
 _atom_site_label
 _atom_site_symmetry_multiplicity
 _atom_site_fract_x
 _atom_site_fract_y
 _atom_site_fract_z
 _atom_site_occupancy
  Rb  Rb0  1  0.98083490  0.00000000  0.00000000  1
  Mn  Mn1  1  0.45516788  0.50000000  0.50000000  1
  F  F2  1  0.47920063  0.00000000  0.50000000  1
  O  O3  1  0.49957064  0.50000000  0.00000000  1
  O  O4  1  0.00195439  0.50000000  0.50000000  1
