# generated using pymatgen
data_BiSbSO2
_symmetry_space_group_name_H-M   'P 1'
_cell_length_a   4.63960592
_cell_length_b   4.63960592
_cell_length_c   4.63960592
_cell_angle_alpha   90.00000000
_cell_angle_beta   90.00000000
_cell_angle_gamma   90.00000000
_symmetry_Int_Tables_number   1
_chemical_formula_structural   BiSbSO2
_chemical_formula_sum   'Bi1 Sb1 S1 O2'
_cell_volume   99.87189319
_cell_formula_units_Z   1
loop_
 _symmetry_equiv_pos_site_id
 _symmetry_equiv_pos_as_xyz
  1  'x, y, z'
loop_
 _atom_site_type_symbol
 _atom_site_label
 _atom_site_symmetry_multiplicity
 _atom_site_fract_x
 _atom_site_fract_y
 _atom_site_fract_z
 _atom_site_occupancy
  Bi  Bi0  1  0.88581744  0.00000000  0.00000000  1
  Sb  Sb1  1  0.59050598  0.50000000  0.50000000  1
  S  S2  1  0.38344645  0.00000000  0.50000000  1
  O  O3  1  0.65269711  0.50000000  0.00000000  1
  O  O4  1  0.00864396  0.50000000  0.50000000  1
