# generated using pymatgen
data_GaTeSO2
_symmetry_space_group_name_H-M   'P 1'
_cell_length_a   4.38464873
_cell_length_b   4.38464873
_cell_length_c   4.38464873
_cell_angle_alpha   90.00000000
_cell_angle_beta   90.00000000
_cell_angle_gamma   90.00000000
_symmetry_Int_Tables_number   1
_chemical_formula_structural   GaTeSO2
_chemical_formula_sum   'Ga1 Te1 S1 O2'
_cell_volume   84.29550524
_cell_formula_units_Z   1
loop_
 _symmetry_equiv_pos_site_id
 _symmetry_equiv_pos_as_xyz
  1  'x, y, z'
loop_
 _atom_site_type_symbol
 _atom_site_label
 _atom_site_symmetry_multiplicity
 _atom_site_fract_x
 _atom_site_fract_y
 _atom_site_fract_z
 _atom_site_occupancy
  Te  Te0  1  0.14588707  0.00000000  0.00000000  1
  Ga  Ga1  1  0.56716763  0.50000000  0.50000000  1
  S  S2  1  0.41458347  0.00000000  0.50000000  1
  O  O3  1  0.39293310  0.50000000  0.00000000  1
  O  O4  1  0.99994144  0.50000000  0.50000000  1
