# generated using pymatgen
data_BePbN3
_symmetry_space_group_name_H-M   'P 1'
_cell_length_a   4.08306699
_cell_length_b   4.08306699
_cell_length_c   4.08306699
_cell_angle_alpha   90.00000000
_cell_angle_beta   90.00000000
_cell_angle_gamma   90.00000000
_symmetry_Int_Tables_number   1
_chemical_formula_structural   BePbN3
_chemical_formula_sum   'Be1 Pb1 N3'
_cell_volume   68.07059006
_cell_formula_units_Z   1
loop_
 _symmetry_equiv_pos_site_id
 _symmetry_equiv_pos_as_xyz
  1  'x, y, z'
loop_
 _atom_site_type_symbol
 _atom_site_label
 _atom_site_symmetry_multiplicity
 _atom_site_fract_x
 _atom_site_fract_y
 _atom_site_fract_z
 _atom_site_occupancy
  Be  Be0  1  0.34057220  0.00000000  1.00000000  1
  Pb  Pb1  1  0.72257535  0.50000000  0.50000000  1
  N  N2  1  0.34947531  0.00000000  0.50000000  1
  N  N3  1  0.34947531  0.50000000  0.00000000  1
  N  N4  1  0.22863592  0.50000000  0.50000000  1
