# generated using pymatgen
data_NaZnSO2
_symmetry_space_group_name_H-M   'P 1'
_cell_length_a   4.24302296
_cell_length_b   4.24302296
_cell_length_c   4.24302296
_cell_angle_alpha   90.00000000
_cell_angle_beta   90.00000000
_cell_angle_gamma   90.00000000
_symmetry_Int_Tables_number   1
_chemical_formula_structural   NaZnSO2
_chemical_formula_sum   'Na1 Zn1 S1 O2'
_cell_volume   76.38817709
_cell_formula_units_Z   1
loop_
 _symmetry_equiv_pos_site_id
 _symmetry_equiv_pos_as_xyz
  1  'x, y, z'
loop_
 _atom_site_type_symbol
 _atom_site_label
 _atom_site_symmetry_multiplicity
 _atom_site_fract_x
 _atom_site_fract_y
 _atom_site_fract_z
 _atom_site_occupancy
  Na  Na0  1  0.91667372  1.00000000  0.00000000  1
  Zn  Zn1  1  0.72215405  0.50000000  0.50000000  1
  S  S2  1  0.32892601  0.00000000  0.50000000  1
  O  O3  1  0.74635302  0.50000000  0.00000000  1
  O  O4  1  0.22511562  0.50000000  0.50000000  1
