# generated using pymatgen
data_InOsNOF
_symmetry_space_group_name_H-M   'P 1'
_cell_length_a   4.10991581
_cell_length_b   4.10991581
_cell_length_c   4.10991581
_cell_angle_alpha   90.00000000
_cell_angle_beta   90.00000000
_cell_angle_gamma   90.00000000
_symmetry_Int_Tables_number   1
_chemical_formula_structural   InOsNOF
_chemical_formula_sum   'In1 Os1 N1 O1 F1'
_cell_volume   69.42226465
_cell_formula_units_Z   1
loop_
 _symmetry_equiv_pos_site_id
 _symmetry_equiv_pos_as_xyz
  1  'x, y, z'
loop_
 _atom_site_type_symbol
 _atom_site_label
 _atom_site_symmetry_multiplicity
 _atom_site_fract_x
 _atom_site_fract_y
 _atom_site_fract_z
 _atom_site_occupancy
  In  In0  1  0.00097829  0.00000000  0.00000000  1
  Os  Os1  1  0.50429676  0.50000000  0.50000000  1
  F  F2  1  0.49959534  0.00000000  0.50000000  1
  N  N3  1  0.50197731  0.50000000  0.00000000  1
  O  O4  1  0.00431592  0.50000000  0.50000000  1
