# generated using pymatgen
data_NaGaN3
_symmetry_space_group_name_H-M   'P 1'
_cell_length_a   4.03220552
_cell_length_b   4.03220552
_cell_length_c   4.03220552
_cell_angle_alpha   90.00000000
_cell_angle_beta   90.00000000
_cell_angle_gamma   90.00000000
_symmetry_Int_Tables_number   1
_chemical_formula_structural   NaGaN3
_chemical_formula_sum   'Na1 Ga1 N3'
_cell_volume   65.55834451
_cell_formula_units_Z   1
loop_
 _symmetry_equiv_pos_site_id
 _symmetry_equiv_pos_as_xyz
  1  'x, y, z'
loop_
 _atom_site_type_symbol
 _atom_site_label
 _atom_site_symmetry_multiplicity
 _atom_site_fract_x
 _atom_site_fract_y
 _atom_site_fract_z
 _atom_site_occupancy
  Ga  Ga0  1  0.20254549  0.00000000  0.00000000  1
  Na  Na1  1  0.70210684  0.50000000  0.50000000  1
  N  N2  1  0.20334397  0.00000000  0.50000000  1
  N  N3  1  0.20334397  0.50000000  0.00000000  1
  N  N4  1  0.20187443  0.50000000  0.50000000  1
