# generated using pymatgen
data_CsNiSO2
_symmetry_space_group_name_H-M   'P 1'
_cell_length_a   5.00517366
_cell_length_b   5.00517366
_cell_length_c   5.00517366
_cell_angle_alpha   90.00000000
_cell_angle_beta   90.00000000
_cell_angle_gamma   90.00000000
_symmetry_Int_Tables_number   1
_chemical_formula_structural   CsNiSO2
_chemical_formula_sum   'Cs1 Ni1 S1 O2'
_cell_volume   125.38842641
_cell_formula_units_Z   1
loop_
 _symmetry_equiv_pos_site_id
 _symmetry_equiv_pos_as_xyz
  1  'x, y, z'
loop_
 _atom_site_type_symbol
 _atom_site_label
 _atom_site_symmetry_multiplicity
 _atom_site_fract_x
 _atom_site_fract_y
 _atom_site_fract_z
 _atom_site_occupancy
  Ni  Ni0  1  0.00027374  0.00000000  0.00000000  1
  Cs  Cs1  1  0.50545619  0.50000000  0.50000000  1
  S  S2  1  0.49871636  0.00000000  0.50000000  1
  O  O3  1  0.50118758  0.50000000  0.00000000  1
  O  O4  1  0.00469772  0.50000000  0.50000000  1
