# generated using pymatgen
data_MgPtN3
_symmetry_space_group_name_H-M   'P 1'
_cell_length_a   4.02622091
_cell_length_b   4.02622091
_cell_length_c   4.02622091
_cell_angle_alpha   90.00000000
_cell_angle_beta   90.00000000
_cell_angle_gamma   90.00000000
_symmetry_Int_Tables_number   1
_chemical_formula_structural   MgPtN3
_chemical_formula_sum   'Mg1 Pt1 N3'
_cell_volume   65.26687229
_cell_formula_units_Z   1
loop_
 _symmetry_equiv_pos_site_id
 _symmetry_equiv_pos_as_xyz
  1  'x, y, z'
loop_
 _atom_site_type_symbol
 _atom_site_label
 _atom_site_symmetry_multiplicity
 _atom_site_fract_x
 _atom_site_fract_y
 _atom_site_fract_z
 _atom_site_occupancy
  Mg  Mg0  1  0.19497325  0.00000000  0.00000000  1
  Pt  Pt1  1  0.53468714  0.50000000  0.50000000  1
  N  N2  1  0.34611951  0.00000000  0.50000000  1
  N  N3  1  0.34611951  0.50000000  0.00000000  1
  N  N4  1  0.98442878  0.50000000  0.50000000  1
