# generated using pymatgen
data_RbBaO2F
_symmetry_space_group_name_H-M   'P 1'
_cell_length_a   4.86072454
_cell_length_b   4.86072454
_cell_length_c   4.86072454
_cell_angle_alpha   90.00000000
_cell_angle_beta   90.00000000
_cell_angle_gamma   90.00000000
_symmetry_Int_Tables_number   1
_chemical_formula_structural   RbBaO2F
_chemical_formula_sum   'Rb1 Ba1 O2 F1'
_cell_volume   114.84260401
_cell_formula_units_Z   1
loop_
 _symmetry_equiv_pos_site_id
 _symmetry_equiv_pos_as_xyz
  1  'x, y, z'
loop_
 _atom_site_type_symbol
 _atom_site_label
 _atom_site_symmetry_multiplicity
 _atom_site_fract_x
 _atom_site_fract_y
 _atom_site_fract_z
 _atom_site_occupancy
  Ba  Ba0  1  0.00061744  0.00000000  0.00000000  1
  Rb  Rb1  1  0.50392220  0.50000000  0.50000000  1
  F  F2  1  0.49958151  0.00000000  0.50000000  1
  O  O3  1  0.50014594  0.50000000  0.00000000  1
  O  O4  1  0.00438498  0.50000000  0.50000000  1
