# generated using pymatgen
data_ZrScNO2
_symmetry_space_group_name_H-M   'P 1'
_cell_length_a   4.16995204
_cell_length_b   4.16995204
_cell_length_c   4.16995204
_cell_angle_alpha   90.00000000
_cell_angle_beta   90.00000000
_cell_angle_gamma   90.00000000
_symmetry_Int_Tables_number   1
_chemical_formula_structural   ZrScNO2
_chemical_formula_sum   'Zr1 Sc1 N1 O2'
_cell_volume   72.50921132
_cell_formula_units_Z   1
loop_
 _symmetry_equiv_pos_site_id
 _symmetry_equiv_pos_as_xyz
  1  'x, y, z'
loop_
 _atom_site_type_symbol
 _atom_site_label
 _atom_site_symmetry_multiplicity
 _atom_site_fract_x
 _atom_site_fract_y
 _atom_site_fract_z
 _atom_site_occupancy
  Sc  Sc0  1  0.30177865  0.00000000  1.00000000  1
  Zr  Zr1  1  0.60065870  0.50000000  0.50000000  1
  N  N2  1  0.48475360  0.00000000  0.50000000  1
  O  O3  1  0.48591150  0.50000000  0.00000000  1
  O  O4  1  0.06501625  0.50000000  0.50000000  1
