# generated using pymatgen
data_PtPbO3
_symmetry_space_group_name_H-M   'P 1'
_cell_length_a   4.12316988
_cell_length_b   4.12316988
_cell_length_c   4.12316988
_cell_angle_alpha   90.00000000
_cell_angle_beta   90.00000000
_cell_angle_gamma   90.00000000
_symmetry_Int_Tables_number   1
_chemical_formula_structural   PtPbO3
_chemical_formula_sum   'Pt1 Pb1 O3'
_cell_volume   70.09607287
_cell_formula_units_Z   1
loop_
 _symmetry_equiv_pos_site_id
 _symmetry_equiv_pos_as_xyz
  1  'x, y, z'
loop_
 _atom_site_type_symbol
 _atom_site_label
 _atom_site_symmetry_multiplicity
 _atom_site_fract_x
 _atom_site_fract_y
 _atom_site_fract_z
 _atom_site_occupancy
  Pb  Pb0  1  0.11722055  0.00000000  0.00000000  1
  Pt  Pt1  1  0.55988568  0.50000000  0.50000000  1
  O  O2  1  0.47746349  0.00000000  0.50000000  1
  O  O3  1  0.47746349  0.50000000  0.00000000  1
  O  O4  1  0.04878162  0.50000000  0.50000000  1
