# generated using pymatgen
data_VIrN2O
_symmetry_space_group_name_H-M   'P 1'
_cell_length_a   3.97575696
_cell_length_b   3.97575696
_cell_length_c   3.97575696
_cell_angle_alpha   90.00000000
_cell_angle_beta   90.00000000
_cell_angle_gamma   90.00000000
_symmetry_Int_Tables_number   1
_chemical_formula_structural   VIrN2O
_chemical_formula_sum   'V1 Ir1 N2 O1'
_cell_volume   62.84337262
_cell_formula_units_Z   1
loop_
 _symmetry_equiv_pos_site_id
 _symmetry_equiv_pos_as_xyz
  1  'x, y, z'
loop_
 _atom_site_type_symbol
 _atom_site_label
 _atom_site_symmetry_multiplicity
 _atom_site_fract_x
 _atom_site_fract_y
 _atom_site_fract_z
 _atom_site_occupancy
  V  V0  1  0.22849023  0.00000000  0.00000000  1
  Ir  Ir1  1  0.45722873  0.50000000  0.50000000  1
  N  N2  1  0.39939474  0.00000000  0.50000000  1
  N  N3  1  0.39939474  0.50000000  0.00000000  1
  O  O4  1  0.94200036  0.50000000  0.50000000  1
