# generated using pymatgen
data_ScPbNO2
_symmetry_space_group_name_H-M   'P 1'
_cell_length_a   4.30164759
_cell_length_b   4.30164759
_cell_length_c   4.30164759
_cell_angle_alpha   90.00000000
_cell_angle_beta   90.00000000
_cell_angle_gamma   90.00000000
_symmetry_Int_Tables_number   1
_chemical_formula_structural   ScPbNO2
_chemical_formula_sum   'Sc1 Pb1 N1 O2'
_cell_volume   79.59842686
_cell_formula_units_Z   1
loop_
 _symmetry_equiv_pos_site_id
 _symmetry_equiv_pos_as_xyz
  1  'x, y, z'
loop_
 _atom_site_type_symbol
 _atom_site_label
 _atom_site_symmetry_multiplicity
 _atom_site_fract_x
 _atom_site_fract_y
 _atom_site_fract_z
 _atom_site_occupancy
  Sc  Sc0  1  0.21178142  0.00000000  0.00000000  1
  Pb  Pb1  1  0.52890622  0.50000000  0.50000000  1
  N  N2  1  0.39031686  0.00000000  0.50000000  1
  O  O3  1  0.36783719  0.50000000  0.00000000  1
  O  O4  1  0.00468300  0.50000000  0.50000000  1
