# generated using pymatgen
data_KFeN3
_symmetry_space_group_name_H-M   'P 1'
_cell_length_a   3.89180193
_cell_length_b   3.89180193
_cell_length_c   3.89180193
_cell_angle_alpha   90.00000000
_cell_angle_beta   90.00000000
_cell_angle_gamma   90.00000000
_symmetry_Int_Tables_number   1
_chemical_formula_structural   KFeN3
_chemical_formula_sum   'K1 Fe1 N3'
_cell_volume   58.94570773
_cell_formula_units_Z   1
loop_
 _symmetry_equiv_pos_site_id
 _symmetry_equiv_pos_as_xyz
  1  'x, y, z'
loop_
 _atom_site_type_symbol
 _atom_site_label
 _atom_site_symmetry_multiplicity
 _atom_site_fract_x
 _atom_site_fract_y
 _atom_site_fract_z
 _atom_site_occupancy
  K  K0  1  0.99215091  0.00000000  0.00000000  1
  Fe  Fe1  1  0.58057563  0.50000000  0.50000000  1
  N  N2  1  0.46904050  0.00000000  0.50000000  1
  N  N3  1  0.46904050  0.50000000  0.00000000  1
  N  N4  1  0.00093377  0.50000000  0.50000000  1
