# generated using pymatgen
data_BeSnN3
_symmetry_space_group_name_H-M   'P 1'
_cell_length_a   4.18278293
_cell_length_b   4.18278293
_cell_length_c   4.18278293
_cell_angle_alpha   90.00000000
_cell_angle_beta   90.00000000
_cell_angle_gamma   90.00000000
_symmetry_Int_Tables_number   1
_chemical_formula_structural   BeSnN3
_chemical_formula_sum   'Be1 Sn1 N3'
_cell_volume   73.18060234
_cell_formula_units_Z   1
loop_
 _symmetry_equiv_pos_site_id
 _symmetry_equiv_pos_as_xyz
  1  'x, y, z'
loop_
 _atom_site_type_symbol
 _atom_site_label
 _atom_site_symmetry_multiplicity
 _atom_site_fract_x
 _atom_site_fract_y
 _atom_site_fract_z
 _atom_site_occupancy
  Be  Be0  1  0.00035203  0.00000000  0.00000000  1
  Sn  Sn1  1  0.50565115  0.50000000  0.50000000  1
  N  N2  1  0.49968365  0.00000000  0.50000000  1
  N  N3  1  0.49968365  0.50000000  0.00000000  1
  N  N4  1  0.00491269  0.50000000  0.50000000  1
