# generated using pymatgen
data_NbFeNO2
_symmetry_space_group_name_H-M   'P 1'
_cell_length_a   4.10098161
_cell_length_b   4.10098161
_cell_length_c   4.10098161
_cell_angle_alpha   90.00000000
_cell_angle_beta   90.00000000
_cell_angle_gamma   90.00000000
_symmetry_Int_Tables_number   1
_chemical_formula_structural   NbFeNO2
_chemical_formula_sum   'Nb1 Fe1 N1 O2'
_cell_volume   68.97051448
_cell_formula_units_Z   1
loop_
 _symmetry_equiv_pos_site_id
 _symmetry_equiv_pos_as_xyz
  1  'x, y, z'
loop_
 _atom_site_type_symbol
 _atom_site_label
 _atom_site_symmetry_multiplicity
 _atom_site_fract_x
 _atom_site_fract_y
 _atom_site_fract_z
 _atom_site_occupancy
  Fe  Fe0  1  0.03030542  0.00000000  0.00000000  1
  Nb  Nb1  1  0.18707180  0.50000000  0.50000000  1
  N  N2  1  0.07306283  1.00000000  0.50000000  1
  O  O3  1  0.08702334  0.50000000  1.00000000  1
  O  O4  1  0.63726602  0.50000000  0.50000000  1
