# generated using pymatgen
data_SrPtSO2
_symmetry_space_group_name_H-M   'P 1'
_cell_length_a   4.41389895
_cell_length_b   4.41389895
_cell_length_c   4.41389895
_cell_angle_alpha   90.00000000
_cell_angle_beta   90.00000000
_cell_angle_gamma   90.00000000
_symmetry_Int_Tables_number   1
_chemical_formula_structural   SrPtSO2
_chemical_formula_sum   'Sr1 Pt1 S1 O2'
_cell_volume   85.99380382
_cell_formula_units_Z   1
loop_
 _symmetry_equiv_pos_site_id
 _symmetry_equiv_pos_as_xyz
  1  'x, y, z'
loop_
 _atom_site_type_symbol
 _atom_site_label
 _atom_site_symmetry_multiplicity
 _atom_site_fract_x
 _atom_site_fract_y
 _atom_site_fract_z
 _atom_site_occupancy
  Sr  Sr0  1  0.00031353  0.00000000  0.00000000  1
  Pt  Pt1  1  0.56906944  0.50000000  0.50000000  1
  S  S2  1  0.44457064  0.00000000  0.50000000  1
  O  O3  1  0.48162657  0.50000000  0.00000000  1
  O  O4  1  0.01294821  0.50000000  0.50000000  1
