# generated using pymatgen
data_TaRhN3
_symmetry_space_group_name_H-M   'P 1'
_cell_length_a   3.92168116
_cell_length_b   3.92168116
_cell_length_c   3.92168116
_cell_angle_alpha   90.00000000
_cell_angle_beta   90.00000000
_cell_angle_gamma   90.00000000
_symmetry_Int_Tables_number   1
_chemical_formula_structural   TaRhN3
_chemical_formula_sum   'Ta1 Rh1 N3'
_cell_volume   60.31382143
_cell_formula_units_Z   1
loop_
 _symmetry_equiv_pos_site_id
 _symmetry_equiv_pos_as_xyz
  1  'x, y, z'
loop_
 _atom_site_type_symbol
 _atom_site_label
 _atom_site_symmetry_multiplicity
 _atom_site_fract_x
 _atom_site_fract_y
 _atom_site_fract_z
 _atom_site_occupancy
  Ta  Ta0  1  0.15529455  0.00000000  0.00000000  1
  Rh  Rh1  1  0.55636088  0.50000000  0.50000000  1
  N  N2  1  0.39227096  0.00000000  0.50000000  1
  N  N3  1  0.39227096  0.50000000  0.00000000  1
  N  N4  1  0.03166072  0.50000000  0.50000000  1
