# generated using pymatgen
data_IrPtN3
_symmetry_space_group_name_H-M   'P 1'
_cell_length_a   3.96482912
_cell_length_b   3.96482912
_cell_length_c   3.96482912
_cell_angle_alpha   90.00000000
_cell_angle_beta   90.00000000
_cell_angle_gamma   90.00000000
_symmetry_Int_Tables_number   1
_chemical_formula_structural   IrPtN3
_chemical_formula_sum   'Ir1 Pt1 N3'
_cell_volume   62.32659837
_cell_formula_units_Z   1
loop_
 _symmetry_equiv_pos_site_id
 _symmetry_equiv_pos_as_xyz
  1  'x, y, z'
loop_
 _atom_site_type_symbol
 _atom_site_label
 _atom_site_symmetry_multiplicity
 _atom_site_fract_x
 _atom_site_fract_y
 _atom_site_fract_z
 _atom_site_occupancy
  Ir  Ir0  1  0.21332066  0.00000000  0.00000000  1
  Pt  Pt1  1  0.56631677  0.50000000  0.50000000  1
  N  N2  1  0.40740504  0.00000000  0.50000000  1
  N  N3  1  0.40740504  0.50000000  0.00000000  1
  N  N4  1  0.03471265  0.50000000  0.50000000  1
