# generated using pymatgen
data_AlPbSO2
_symmetry_space_group_name_H-M   'P 1'
_cell_length_a   4.59257877
_cell_length_b   4.59257877
_cell_length_c   4.59257877
_cell_angle_alpha   90.00000000
_cell_angle_beta   90.00000000
_cell_angle_gamma   90.00000000
_symmetry_Int_Tables_number   1
_chemical_formula_structural   AlPbSO2
_chemical_formula_sum   'Al1 Pb1 S1 O2'
_cell_volume   96.86565982
_cell_formula_units_Z   1
loop_
 _symmetry_equiv_pos_site_id
 _symmetry_equiv_pos_as_xyz
  1  'x, y, z'
loop_
 _atom_site_type_symbol
 _atom_site_label
 _atom_site_symmetry_multiplicity
 _atom_site_fract_x
 _atom_site_fract_y
 _atom_site_fract_z
 _atom_site_occupancy
  Al  Al0  1  0.25633560  0.00000000  0.00000000  1
  Pb  Pb1  1  0.53778809  0.50000000  0.50000000  1
  S  S2  1  0.06763061  0.00000000  0.50000000  1
  O  O3  1  0.40780446  0.50000000  0.00000000  1
  O  O4  1  0.03670482  0.50000000  0.50000000  1
