# generated using pymatgen
data_NiPdNO2
_symmetry_space_group_name_H-M   'P 1'
_cell_length_a   3.91426264
_cell_length_b   3.91426264
_cell_length_c   3.91426264
_cell_angle_alpha   90.00000000
_cell_angle_beta   90.00000000
_cell_angle_gamma   90.00000000
_symmetry_Int_Tables_number   1
_chemical_formula_structural   NiPdNO2
_chemical_formula_sum   'Ni1 Pd1 N1 O2'
_cell_volume   59.97218741
_cell_formula_units_Z   1
loop_
 _symmetry_equiv_pos_site_id
 _symmetry_equiv_pos_as_xyz
  1  'x, y, z'
loop_
 _atom_site_type_symbol
 _atom_site_label
 _atom_site_symmetry_multiplicity
 _atom_site_fract_x
 _atom_site_fract_y
 _atom_site_fract_z
 _atom_site_occupancy
  Ni  Ni0  1  0.00060440  0.00000000  0.00000000  1
  Pd  Pd1  1  0.50569605  0.50000000  0.50000000  1
  N  N2  1  0.49960969  0.00000000  0.50000000  1
  O  O3  1  0.49919868  0.50000000  0.00000000  1
  O  O4  1  0.00491179  0.50000000  0.50000000  1
