# generated using pymatgen
data_LiCuSO2
_symmetry_space_group_name_H-M   'P 1'
_cell_length_a   3.91855214
_cell_length_b   3.91855214
_cell_length_c   3.91855214
_cell_angle_alpha   90.00000000
_cell_angle_beta   90.00000000
_cell_angle_gamma   90.00000000
_symmetry_Int_Tables_number   1
_chemical_formula_structural   LiCuSO2
_chemical_formula_sum   'Li1 Cu1 S1 O2'
_cell_volume   60.16956731
_cell_formula_units_Z   1
loop_
 _symmetry_equiv_pos_site_id
 _symmetry_equiv_pos_as_xyz
  1  'x, y, z'
loop_
 _atom_site_type_symbol
 _atom_site_label
 _atom_site_symmetry_multiplicity
 _atom_site_fract_x
 _atom_site_fract_y
 _atom_site_fract_z
 _atom_site_occupancy
  Cu  Cu0  1  0.79822428  1.00000000  1.00000000  1
  Li  Li1  1  0.65751870  0.50000000  0.50000000  1
  S  S2  1  0.12274408  0.00000000  0.50000000  1
  O  O3  1  0.68513811  0.50000000  0.00000000  1
  O  O4  1  0.17577359  0.50000000  0.50000000  1
