# generated using pymatgen
data_CoWNO2
_symmetry_space_group_name_H-M   'P 1'
_cell_length_a   3.94632907
_cell_length_b   3.94632907
_cell_length_c   3.94632907
_cell_angle_alpha   90.00000000
_cell_angle_beta   90.00000000
_cell_angle_gamma   90.00000000
_symmetry_Int_Tables_number   1
_chemical_formula_structural   CoWNO2
_chemical_formula_sum   'Co1 W1 N1 O2'
_cell_volume   61.45820769
_cell_formula_units_Z   1
loop_
 _symmetry_equiv_pos_site_id
 _symmetry_equiv_pos_as_xyz
  1  'x, y, z'
loop_
 _atom_site_type_symbol
 _atom_site_label
 _atom_site_symmetry_multiplicity
 _atom_site_fract_x
 _atom_site_fract_y
 _atom_site_fract_z
 _atom_site_occupancy
  Co  Co0  1  0.99954108  0.00000000  0.00000000  1
  W  W1  1  0.50319101  0.50000000  0.50000000  1
  N  N2  1  0.50152528  0.00000000  0.50000000  1
  O  O3  1  0.50312292  0.50000000  0.00000000  1
  O  O4  1  0.00289457  0.50000000  0.50000000  1
