# generated using pymatgen
data_LaWSO2
_symmetry_space_group_name_H-M   'P 1'
_cell_length_a   4.78414398
_cell_length_b   4.78414398
_cell_length_c   4.78414398
_cell_angle_alpha   90.00000000
_cell_angle_beta   90.00000000
_cell_angle_gamma   90.00000000
_symmetry_Int_Tables_number   1
_chemical_formula_structural   LaWSO2
_chemical_formula_sum   'La1 W1 S1 O2'
_cell_volume   109.49964809
_cell_formula_units_Z   1
loop_
 _symmetry_equiv_pos_site_id
 _symmetry_equiv_pos_as_xyz
  1  'x, y, z'
loop_
 _atom_site_type_symbol
 _atom_site_label
 _atom_site_symmetry_multiplicity
 _atom_site_fract_x
 _atom_site_fract_y
 _atom_site_fract_z
 _atom_site_occupancy
  W  W0  1  0.32379919  0.00000000  1.00000000  1
  La  La1  1  0.54151702  0.50000000  0.50000000  1
  S  S2  1  0.21385107  0.00000000  0.50000000  1
  O  O3  1  0.42749494  0.50000000  0.00000000  1
  O  O4  1  0.00352395  0.50000000  0.50000000  1
