# generated using pymatgen
data_HgPdSO2
_symmetry_space_group_name_H-M   'P 1'
_cell_length_a   4.35723875
_cell_length_b   4.35723875
_cell_length_c   4.35723875
_cell_angle_alpha   90.00000000
_cell_angle_beta   90.00000000
_cell_angle_gamma   90.00000000
_symmetry_Int_Tables_number   1
_chemical_formula_structural   HgPdSO2
_chemical_formula_sum   'Hg1 Pd1 S1 O2'
_cell_volume   82.72448506
_cell_formula_units_Z   1
loop_
 _symmetry_equiv_pos_site_id
 _symmetry_equiv_pos_as_xyz
  1  'x, y, z'
loop_
 _atom_site_type_symbol
 _atom_site_label
 _atom_site_symmetry_multiplicity
 _atom_site_fract_x
 _atom_site_fract_y
 _atom_site_fract_z
 _atom_site_occupancy
  Hg  Hg0  1  0.05685762  0.00000000  0.00000000  1
  Pd  Pd1  1  0.54441777  0.50000000  0.50000000  1
  S  S2  1  0.32794015  0.00000000  0.50000000  1
  O  O3  1  0.47761221  0.50000000  0.00000000  1
  O  O4  1  0.00613309  0.50000000  0.50000000  1
