# generated using pymatgen
data_NaTlO2F
_symmetry_space_group_name_H-M   'P 1'
_cell_length_a   4.32597568
_cell_length_b   4.32597568
_cell_length_c   4.32597568
_cell_angle_alpha   90.00000000
_cell_angle_beta   90.00000000
_cell_angle_gamma   90.00000000
_symmetry_Int_Tables_number   1
_chemical_formula_structural   NaTlO2F
_chemical_formula_sum   'Na1 Tl1 O2 F1'
_cell_volume   80.95659271
_cell_formula_units_Z   1
loop_
 _symmetry_equiv_pos_site_id
 _symmetry_equiv_pos_as_xyz
  1  'x, y, z'
loop_
 _atom_site_type_symbol
 _atom_site_label
 _atom_site_symmetry_multiplicity
 _atom_site_fract_x
 _atom_site_fract_y
 _atom_site_fract_z
 _atom_site_occupancy
  Tl  Tl0  1  0.00027733  0.00000000  0.00000000  1
  Na  Na1  1  0.50515330  0.50000000  0.50000000  1
  F  F2  1  0.49994647  0.00000000  0.50000000  1
  O  O3  1  0.49975250  0.50000000  0.00000000  1
  O  O4  1  0.00485661  0.50000000  0.50000000  1
