# generated using pymatgen
data_InSnNO2
_symmetry_space_group_name_H-M   'P 1'
_cell_length_a   4.19902387
_cell_length_b   4.19902387
_cell_length_c   4.19902387
_cell_angle_alpha   90.00000000
_cell_angle_beta   90.00000000
_cell_angle_gamma   90.00000000
_symmetry_Int_Tables_number   1
_chemical_formula_structural   InSnNO2
_chemical_formula_sum   'In1 Sn1 N1 O2'
_cell_volume   74.03635519
_cell_formula_units_Z   1
loop_
 _symmetry_equiv_pos_site_id
 _symmetry_equiv_pos_as_xyz
  1  'x, y, z'
loop_
 _atom_site_type_symbol
 _atom_site_label
 _atom_site_symmetry_multiplicity
 _atom_site_fract_x
 _atom_site_fract_y
 _atom_site_fract_z
 _atom_site_occupancy
  In  In0  1  0.24006948  1.00000000  1.00000000  1
  Sn  Sn1  1  0.56256207  0.50000000  0.50000000  1
  N  N2  1  0.43814930  1.00000000  0.50000000  1
  O  O3  1  0.49538437  0.50000000  0.00000000  1
  O  O4  1  0.03830302  0.50000000  0.50000000  1
