# generated using pymatgen
data_RbSiSO2
_symmetry_space_group_name_H-M   'P 1'
_cell_length_a   4.91826291
_cell_length_b   4.91826291
_cell_length_c   4.91826291
_cell_angle_alpha   90.00000000
_cell_angle_beta   90.00000000
_cell_angle_gamma   90.00000000
_symmetry_Int_Tables_number   1
_chemical_formula_structural   RbSiSO2
_chemical_formula_sum   'Rb1 Si1 S1 O2'
_cell_volume   118.96938614
_cell_formula_units_Z   1
loop_
 _symmetry_equiv_pos_site_id
 _symmetry_equiv_pos_as_xyz
  1  'x, y, z'
loop_
 _atom_site_type_symbol
 _atom_site_label
 _atom_site_symmetry_multiplicity
 _atom_site_fract_x
 _atom_site_fract_y
 _atom_site_fract_z
 _atom_site_occupancy
  Si  Si0  1  0.00009724  0.00000000  0.00000000  1
  Rb  Rb1  1  0.50458979  0.50000000  0.50000000  1
  S  S2  1  0.49929268  0.00000000  0.50000000  1
  O  O3  1  0.50025198  0.50000000  0.00000000  1
  O  O4  1  0.00443565  0.50000000  0.50000000  1
