# generated using pymatgen
data_AgPdNO2
_symmetry_space_group_name_H-M   'P 1'
_cell_length_a   4.12970470
_cell_length_b   4.12970470
_cell_length_c   4.12970470
_cell_angle_alpha   90.00000000
_cell_angle_beta   90.00000000
_cell_angle_gamma   90.00000000
_symmetry_Int_Tables_number   1
_chemical_formula_structural   AgPdNO2
_chemical_formula_sum   'Ag1 Pd1 N1 O2'
_cell_volume   70.42988722
_cell_formula_units_Z   1
loop_
 _symmetry_equiv_pos_site_id
 _symmetry_equiv_pos_as_xyz
  1  'x, y, z'
loop_
 _atom_site_type_symbol
 _atom_site_label
 _atom_site_symmetry_multiplicity
 _atom_site_fract_x
 _atom_site_fract_y
 _atom_site_fract_z
 _atom_site_occupancy
  Pd  Pd0  1  0.00045915  0.00000000  0.00000000  1
  Ag  Ag1  1  0.50547534  0.50000000  0.50000000  1
  N  N2  1  0.49961421  0.00000000  0.50000000  1
  O  O3  1  0.49969268  0.50000000  0.00000000  1
  O  O4  1  0.00515372  0.50000000  0.50000000  1
