# generated using pymatgen
data_KLiO3
_symmetry_space_group_name_H-M   'P 1'
_cell_length_a   4.63646426
_cell_length_b   4.63646426
_cell_length_c   4.63646426
_cell_angle_alpha   90.00000000
_cell_angle_beta   90.00000000
_cell_angle_gamma   90.00000000
_symmetry_Int_Tables_number   1
_chemical_formula_structural   KLiO3
_chemical_formula_sum   'K1 Li1 O3'
_cell_volume   99.66914853
_cell_formula_units_Z   1
loop_
 _symmetry_equiv_pos_site_id
 _symmetry_equiv_pos_as_xyz
  1  'x, y, z'
loop_
 _atom_site_type_symbol
 _atom_site_label
 _atom_site_symmetry_multiplicity
 _atom_site_fract_x
 _atom_site_fract_y
 _atom_site_fract_z
 _atom_site_occupancy
  Li  Li0  1  0.00033684  0.00000000  0.00000000  1
  K  K1  1  0.50533942  0.50000000  0.50000000  1
  O  O2  1  0.49956081  0.00000000  0.50000000  1
  O  O3  1  0.49956081  0.50000000  0.00000000  1
  O  O4  1  0.00560383  0.50000000  0.50000000  1
