# generated using pymatgen
data_TlHgSO2
_symmetry_space_group_name_H-M   'P 1'
_cell_length_a   4.70495087
_cell_length_b   4.70495087
_cell_length_c   4.70495087
_cell_angle_alpha   90.00000000
_cell_angle_beta   90.00000000
_cell_angle_gamma   90.00000000
_symmetry_Int_Tables_number   1
_chemical_formula_structural   TlHgSO2
_chemical_formula_sum   'Tl1 Hg1 S1 O2'
_cell_volume   104.15143979
_cell_formula_units_Z   1
loop_
 _symmetry_equiv_pos_site_id
 _symmetry_equiv_pos_as_xyz
  1  'x, y, z'
loop_
 _atom_site_type_symbol
 _atom_site_label
 _atom_site_symmetry_multiplicity
 _atom_site_fract_x
 _atom_site_fract_y
 _atom_site_fract_z
 _atom_site_occupancy
  Tl  Tl0  1  0.00027157  0.00000000  0.00000000  1
  Hg  Hg1  1  0.50590863  0.50000000  0.50000000  1
  S  S2  1  0.49857924  0.00000000  0.50000000  1
  O  O3  1  0.50057156  0.50000000  0.00000000  1
  O  O4  1  0.00385746  0.50000000  0.50000000  1
