# generated using pymatgen
data_MnInNO2
_symmetry_space_group_name_H-M   'P 1'
_cell_length_a   4.19289932
_cell_length_b   4.19289932
_cell_length_c   4.19289932
_cell_angle_alpha   90.00000000
_cell_angle_beta   90.00000000
_cell_angle_gamma   90.00000000
_symmetry_Int_Tables_number   1
_chemical_formula_structural   MnInNO2
_chemical_formula_sum   'Mn1 In1 N1 O2'
_cell_volume   73.71286689
_cell_formula_units_Z   1
loop_
 _symmetry_equiv_pos_site_id
 _symmetry_equiv_pos_as_xyz
  1  'x, y, z'
loop_
 _atom_site_type_symbol
 _atom_site_label
 _atom_site_symmetry_multiplicity
 _atom_site_fract_x
 _atom_site_fract_y
 _atom_site_fract_z
 _atom_site_occupancy
  Mn  Mn0  1  0.52711009  0.00000000  0.00000000  1
  In  In1  1  0.30258478  0.50000000  0.50000000  1
  N  N2  1  0.48155875  0.00000000  0.50000000  1
  O  O3  1  0.42416828  0.50000000  0.00000000  1
  O  O4  1  0.82277154  0.50000000  0.50000000  1
