# generated using pymatgen
data_AsWSO2
_symmetry_space_group_name_H-M   'P 1'
_cell_length_a   4.32622776
_cell_length_b   4.32622776
_cell_length_c   4.32622776
_cell_angle_alpha   90.00000000
_cell_angle_beta   90.00000000
_cell_angle_gamma   90.00000000
_symmetry_Int_Tables_number   1
_chemical_formula_structural   AsWSO2
_chemical_formula_sum   'As1 W1 S1 O2'
_cell_volume   80.97074586
_cell_formula_units_Z   1
loop_
 _symmetry_equiv_pos_site_id
 _symmetry_equiv_pos_as_xyz
  1  'x, y, z'
loop_
 _atom_site_type_symbol
 _atom_site_label
 _atom_site_symmetry_multiplicity
 _atom_site_fract_x
 _atom_site_fract_y
 _atom_site_fract_z
 _atom_site_occupancy
  W  W0  1  0.06753949  0.00000000  0.00000000  1
  As  As1  1  0.57080151  0.50000000  0.50000000  1
  S  S2  1  0.33423122  0.00000000  0.50000000  1
  O  O3  1  0.55217912  0.50000000  0.00000000  1
  O  O4  1  0.98213114  0.50000000  0.50000000  1
