# generated using pymatgen
data_BePdN2O
_symmetry_space_group_name_H-M   'P 1'
_cell_length_a   3.60899884
_cell_length_b   3.60899884
_cell_length_c   3.60899884
_cell_angle_alpha   90.00000000
_cell_angle_beta   90.00000000
_cell_angle_gamma   90.00000000
_symmetry_Int_Tables_number   1
_chemical_formula_structural   BePdN2O
_chemical_formula_sum   'Be1 Pd1 N2 O1'
_cell_volume   47.00675029
_cell_formula_units_Z   1
loop_
 _symmetry_equiv_pos_site_id
 _symmetry_equiv_pos_as_xyz
  1  'x, y, z'
loop_
 _atom_site_type_symbol
 _atom_site_label
 _atom_site_symmetry_multiplicity
 _atom_site_fract_x
 _atom_site_fract_y
 _atom_site_fract_z
 _atom_site_occupancy
  Pd  Pd0  1  0.11408127  0.00000000  0.00000000  1
  Be  Be1  1  0.48809128  0.50000000  0.50000000  1
  N  N2  1  0.42195501  0.00000000  0.50000000  1
  N  N3  1  0.42195501  0.50000000  0.00000000  1
  O  O4  1  0.94368656  0.50000000  0.50000000  1
