# generated using pymatgen
data_YNiO3
_symmetry_space_group_name_H-M   'P 1'
_cell_length_a   4.36737691
_cell_length_b   4.36737691
_cell_length_c   4.36737691
_cell_angle_alpha   90.00000000
_cell_angle_beta   90.00000000
_cell_angle_gamma   90.00000000
_symmetry_Int_Tables_number   1
_chemical_formula_structural   YNiO3
_chemical_formula_sum   'Y1 Ni1 O3'
_cell_volume   83.30326463
_cell_formula_units_Z   1
loop_
 _symmetry_equiv_pos_site_id
 _symmetry_equiv_pos_as_xyz
  1  'x, y, z'
loop_
 _atom_site_type_symbol
 _atom_site_label
 _atom_site_symmetry_multiplicity
 _atom_site_fract_x
 _atom_site_fract_y
 _atom_site_fract_z
 _atom_site_occupancy
  Ni  Ni0  1  0.00074683  0.00000000  0.00000000  1
  Y  Y1  1  0.50255137  0.50000000  0.50000000  1
  O  O2  1  0.50023821  0.00000000  0.50000000  1
  O  O3  1  0.50023821  0.50000000  0.00000000  1
  O  O4  1  0.00224000  0.50000000  0.50000000  1
