# generated using pymatgen
data_LiPbNO2
_symmetry_space_group_name_H-M   'P 1'
_cell_length_a   4.40697760
_cell_length_b   4.40697760
_cell_length_c   4.40697760
_cell_angle_alpha   90.00000000
_cell_angle_beta   90.00000000
_cell_angle_gamma   90.00000000
_symmetry_Int_Tables_number   1
_chemical_formula_structural   LiPbNO2
_chemical_formula_sum   'Li1 Pb1 N1 O2'
_cell_volume   85.58990212
_cell_formula_units_Z   1
loop_
 _symmetry_equiv_pos_site_id
 _symmetry_equiv_pos_as_xyz
  1  'x, y, z'
loop_
 _atom_site_type_symbol
 _atom_site_label
 _atom_site_symmetry_multiplicity
 _atom_site_fract_x
 _atom_site_fract_y
 _atom_site_fract_z
 _atom_site_occupancy
  Li  Li0  1  0.00047299  0.00000000  0.00000000  1
  Pb  Pb1  1  0.50686743  0.50000000  0.50000000  1
  N  N2  1  0.49936157  0.00000000  0.50000000  1
  O  O3  1  0.49977461  0.50000000  0.00000000  1
  O  O4  1  0.00491561  0.50000000  0.50000000  1
