# generated using pymatgen
data_CdPtN3
_symmetry_space_group_name_H-M   'P 1'
_cell_length_a   4.06401799
_cell_length_b   4.06401799
_cell_length_c   4.06401799
_cell_angle_alpha   90.00000000
_cell_angle_beta   90.00000000
_cell_angle_gamma   90.00000000
_symmetry_Int_Tables_number   1
_chemical_formula_structural   CdPtN3
_chemical_formula_sum   'Cd1 Pt1 N3'
_cell_volume   67.12230563
_cell_formula_units_Z   1
loop_
 _symmetry_equiv_pos_site_id
 _symmetry_equiv_pos_as_xyz
  1  'x, y, z'
loop_
 _atom_site_type_symbol
 _atom_site_label
 _atom_site_symmetry_multiplicity
 _atom_site_fract_x
 _atom_site_fract_y
 _atom_site_fract_z
 _atom_site_occupancy
  Cd  Cd0  1  0.10519060  0.00000000  0.00000000  1
  Pt  Pt1  1  0.54344522  0.50000000  0.50000000  1
  N  N2  1  0.42311160  0.00000000  0.50000000  1
  N  N3  1  0.42311160  0.50000000  0.00000000  1
  N  N4  1  0.01011800  0.50000000  0.50000000  1
