# generated using pymatgen
data_PdRhN3
_symmetry_space_group_name_H-M   'P 1'
_cell_length_a   3.94647529
_cell_length_b   3.94647529
_cell_length_c   3.94647529
_cell_angle_alpha   90.00000000
_cell_angle_beta   90.00000000
_cell_angle_gamma   90.00000000
_symmetry_Int_Tables_number   1
_chemical_formula_structural   PdRhN3
_chemical_formula_sum   'Pd1 Rh1 N3'
_cell_volume   61.46503923
_cell_formula_units_Z   1
loop_
 _symmetry_equiv_pos_site_id
 _symmetry_equiv_pos_as_xyz
  1  'x, y, z'
loop_
 _atom_site_type_symbol
 _atom_site_label
 _atom_site_symmetry_multiplicity
 _atom_site_fract_x
 _atom_site_fract_y
 _atom_site_fract_z
 _atom_site_occupancy
  Rh  Rh0  1  0.24735167  0.00000000  1.00000000  1
  Pd  Pd1  1  0.60387888  0.50000000  0.50000000  1
  N  N2  1  0.47361787  0.00000000  0.50000000  1
  N  N3  1  0.47361787  0.50000000  0.00000000  1
  N  N4  1  0.08201829  0.50000000  0.50000000  1
