# generated using pymatgen
data_LiInN2O
_symmetry_space_group_name_H-M   'P 1'
_cell_length_a   4.33115614
_cell_length_b   4.33115614
_cell_length_c   4.33115614
_cell_angle_alpha   90.00000000
_cell_angle_beta   90.00000000
_cell_angle_gamma   90.00000000
_symmetry_Int_Tables_number   1
_chemical_formula_structural   LiInN2O
_chemical_formula_sum   'Li1 In1 N2 O1'
_cell_volume   81.24778322
_cell_formula_units_Z   1
loop_
 _symmetry_equiv_pos_site_id
 _symmetry_equiv_pos_as_xyz
  1  'x, y, z'
loop_
 _atom_site_type_symbol
 _atom_site_label
 _atom_site_symmetry_multiplicity
 _atom_site_fract_x
 _atom_site_fract_y
 _atom_site_fract_z
 _atom_site_occupancy
  Li  Li0  1  0.00071237  0.00000000  0.00000000  1
  In  In1  1  0.50000352  0.50000000  0.50000000  1
  N  N2  1  0.49970785  0.00000000  0.50000000  1
  N  N3  1  0.49970785  0.50000000  0.00000000  1
  O  O4  1  0.00003213  0.50000000  0.50000000  1
