# generated using pymatgen
data_SrCrN3
_symmetry_space_group_name_H-M   'P 1'
_cell_length_a   3.89236429
_cell_length_b   3.89236429
_cell_length_c   3.89236429
_cell_angle_alpha   90.00000000
_cell_angle_beta   90.00000000
_cell_angle_gamma   90.00000000
_symmetry_Int_Tables_number   1
_chemical_formula_structural   SrCrN3
_chemical_formula_sum   'Sr1 Cr1 N3'
_cell_volume   58.97126439
_cell_formula_units_Z   1
loop_
 _symmetry_equiv_pos_site_id
 _symmetry_equiv_pos_as_xyz
  1  'x, y, z'
loop_
 _atom_site_type_symbol
 _atom_site_label
 _atom_site_symmetry_multiplicity
 _atom_site_fract_x
 _atom_site_fract_y
 _atom_site_fract_z
 _atom_site_occupancy
  Sr  Sr0  1  0.00118959  0.00000000  0.00000000  1
  Cr  Cr1  1  0.54183468  0.50000000  0.50000000  1
  N  N2  1  0.47932324  0.00000000  0.50000000  1
  N  N3  1  0.47932324  0.50000000  0.00000000  1
  N  N4  1  0.97575551  0.50000000  0.50000000  1
