# generated using pymatgen
data_NiBiN3
_symmetry_space_group_name_H-M   'P 1'
_cell_length_a   3.92146690
_cell_length_b   3.92146690
_cell_length_c   3.92146690
_cell_angle_alpha   90.00000000
_cell_angle_beta   90.00000000
_cell_angle_gamma   90.00000000
_symmetry_Int_Tables_number   1
_chemical_formula_structural   NiBiN3
_chemical_formula_sum   'Ni1 Bi1 N3'
_cell_volume   60.30393634
_cell_formula_units_Z   1
loop_
 _symmetry_equiv_pos_site_id
 _symmetry_equiv_pos_as_xyz
  1  'x, y, z'
loop_
 _atom_site_type_symbol
 _atom_site_label
 _atom_site_symmetry_multiplicity
 _atom_site_fract_x
 _atom_site_fract_y
 _atom_site_fract_z
 _atom_site_occupancy
  Bi  Bi0  1  0.09017588  1.00000000  1.00000000  1
  Ni  Ni1  1  0.53899551  0.50000000  0.50000000  1
  N  N2  1  0.43984471  0.00000000  0.50000000  1
  N  N3  1  0.43984471  0.50000000  0.00000000  1
  N  N4  1  0.99693547  0.50000000  0.50000000  1
