# generated using pymatgen
data_HgIrNO2
_symmetry_space_group_name_H-M   'P 1'
_cell_length_a   3.98087925
_cell_length_b   3.98087925
_cell_length_c   3.98087925
_cell_angle_alpha   90.00000000
_cell_angle_beta   90.00000000
_cell_angle_gamma   90.00000000
_symmetry_Int_Tables_number   1
_chemical_formula_structural   HgIrNO2
_chemical_formula_sum   'Hg1 Ir1 N1 O2'
_cell_volume   63.08658425
_cell_formula_units_Z   1
loop_
 _symmetry_equiv_pos_site_id
 _symmetry_equiv_pos_as_xyz
  1  'x, y, z'
loop_
 _atom_site_type_symbol
 _atom_site_label
 _atom_site_symmetry_multiplicity
 _atom_site_fract_x
 _atom_site_fract_y
 _atom_site_fract_z
 _atom_site_occupancy
  Hg  Hg0  1  0.00118600  0.00000000  0.00000000  1
  Ir  Ir1  1  0.50542684  0.50000000  0.50000000  1
  N  N2  1  0.49991897  0.00000000  0.50000000  1
  O  O3  1  0.49921916  0.50000000  0.00000000  1
  O  O4  1  0.00468808  0.50000000  0.50000000  1
