# generated using pymatgen
data_LiTeO2F
_symmetry_space_group_name_H-M   'P 1'
_cell_length_a   3.72904684
_cell_length_b   3.72904684
_cell_length_c   3.72904684
_cell_angle_alpha   90.00000000
_cell_angle_beta   90.00000000
_cell_angle_gamma   90.00000000
_symmetry_Int_Tables_number   1
_chemical_formula_structural   LiTeO2F
_chemical_formula_sum   'Li1 Te1 O2 F1'
_cell_volume   51.85534358
_cell_formula_units_Z   1
loop_
 _symmetry_equiv_pos_site_id
 _symmetry_equiv_pos_as_xyz
  1  'x, y, z'
loop_
 _atom_site_type_symbol
 _atom_site_label
 _atom_site_symmetry_multiplicity
 _atom_site_fract_x
 _atom_site_fract_y
 _atom_site_fract_z
 _atom_site_occupancy
  Te  Te0  1  0.00059227  0.00000000  0.00000000  1
  Li  Li1  1  0.50501351  0.50000000  0.50000000  1
  F  F2  1  0.49999527  0.00000000  0.50000000  1
  O  O3  1  0.50005065  0.50000000  0.00000000  1
  O  O4  1  0.00436462  0.50000000  0.50000000  1
