# generated using pymatgen
data_BaMgNO2
_symmetry_space_group_name_H-M   'P 1'
_cell_length_a   4.51396988
_cell_length_b   4.51396988
_cell_length_c   4.51396988
_cell_angle_alpha   90.00000000
_cell_angle_beta   90.00000000
_cell_angle_gamma   90.00000000
_symmetry_Int_Tables_number   1
_chemical_formula_structural   BaMgNO2
_chemical_formula_sum   'Ba1 Mg1 N1 O2'
_cell_volume   91.97630766
_cell_formula_units_Z   1
loop_
 _symmetry_equiv_pos_site_id
 _symmetry_equiv_pos_as_xyz
  1  'x, y, z'
loop_
 _atom_site_type_symbol
 _atom_site_label
 _atom_site_symmetry_multiplicity
 _atom_site_fract_x
 _atom_site_fract_y
 _atom_site_fract_z
 _atom_site_occupancy
  Mg  Mg0  1  0.88779061  1.00000000  0.00000000  1
  Ba  Ba1  1  0.48681090  0.50000000  0.50000000  1
  N  N2  1  0.97267428  0.00000000  0.50000000  1
  O  O3  1  0.72889292  0.50000000  0.00000000  1
  O  O4  1  0.99083192  0.50000000  0.50000000  1
