# generated using pymatgen
data_MgPbNO2
_symmetry_space_group_name_H-M   'P 1'
_cell_length_a   4.37766409
_cell_length_b   4.37766409
_cell_length_c   4.37766409
_cell_angle_alpha   90.00000000
_cell_angle_beta   90.00000000
_cell_angle_gamma   90.00000000
_symmetry_Int_Tables_number   1
_chemical_formula_structural   MgPbNO2
_chemical_formula_sum   'Mg1 Pb1 N1 O2'
_cell_volume   83.89330466
_cell_formula_units_Z   1
loop_
 _symmetry_equiv_pos_site_id
 _symmetry_equiv_pos_as_xyz
  1  'x, y, z'
loop_
 _atom_site_type_symbol
 _atom_site_label
 _atom_site_symmetry_multiplicity
 _atom_site_fract_x
 _atom_site_fract_y
 _atom_site_fract_z
 _atom_site_occupancy
  Mg  Mg0  1  0.26316644  1.00000000  1.00000000  1
  Pb  Pb1  1  0.49901600  0.50000000  0.50000000  1
  N  N2  1  0.34715924  0.00000000  0.50000000  1
  O  O3  1  0.37966623  0.50000000  0.00000000  1
  O  O4  1  0.98053756  0.50000000  0.50000000  1
