# generated using pymatgen
data_BeMoN3
_symmetry_space_group_name_H-M   'P 1'
_cell_length_a   3.50798138
_cell_length_b   3.50798138
_cell_length_c   3.50798138
_cell_angle_alpha   90.00000000
_cell_angle_beta   90.00000000
_cell_angle_gamma   90.00000000
_symmetry_Int_Tables_number   1
_chemical_formula_structural   BeMoN3
_chemical_formula_sum   'Be1 Mo1 N3'
_cell_volume   43.16898512
_cell_formula_units_Z   1
loop_
 _symmetry_equiv_pos_site_id
 _symmetry_equiv_pos_as_xyz
  1  'x, y, z'
loop_
 _atom_site_type_symbol
 _atom_site_label
 _atom_site_symmetry_multiplicity
 _atom_site_fract_x
 _atom_site_fract_y
 _atom_site_fract_z
 _atom_site_occupancy
  Mo  Mo0  1  0.11088288  1.00000000  0.00000000  1
  Be  Be1  1  0.50083679  0.50000000  0.50000000  1
  N  N2  1  0.46206193  0.00000000  0.50000000  1
  N  N3  1  0.46206193  0.50000000  0.00000000  1
  N  N4  1  0.98026904  0.50000000  0.50000000  1
