# generated using pymatgen
data_BaCaNO2
_symmetry_space_group_name_H-M   'P 1'
_cell_length_a   4.49240151
_cell_length_b   4.49240151
_cell_length_c   4.49240151
_cell_angle_alpha   90.00000000
_cell_angle_beta   90.00000000
_cell_angle_gamma   90.00000000
_symmetry_Int_Tables_number   1
_chemical_formula_structural   BaCaNO2
_chemical_formula_sum   'Ba1 Ca1 N1 O2'
_cell_volume   90.66417053
_cell_formula_units_Z   1
loop_
 _symmetry_equiv_pos_site_id
 _symmetry_equiv_pos_as_xyz
  1  'x, y, z'
loop_
 _atom_site_type_symbol
 _atom_site_label
 _atom_site_symmetry_multiplicity
 _atom_site_fract_x
 _atom_site_fract_y
 _atom_site_fract_z
 _atom_site_occupancy
  Ba  Ba0  1  0.00665109  0.00000000  0.00000000  1
  Ca  Ca1  1  0.50352534  0.50000000  0.50000000  1
  N  N2  1  0.50042587  0.00000000  0.50000000  1
  O  O3  1  0.50190143  0.50000000  0.00000000  1
  O  O4  1  0.00367579  0.50000000  0.50000000  1
