# generated using pymatgen
data_SrLaSO2
_symmetry_space_group_name_H-M   'P 1'
_cell_length_a   4.91750921
_cell_length_b   4.91750921
_cell_length_c   4.91750921
_cell_angle_alpha   90.00000000
_cell_angle_beta   90.00000000
_cell_angle_gamma   90.00000000
_symmetry_Int_Tables_number   1
_chemical_formula_structural   SrLaSO2
_chemical_formula_sum   'Sr1 La1 S1 O2'
_cell_volume   118.91470059
_cell_formula_units_Z   1
loop_
 _symmetry_equiv_pos_site_id
 _symmetry_equiv_pos_as_xyz
  1  'x, y, z'
loop_
 _atom_site_type_symbol
 _atom_site_label
 _atom_site_symmetry_multiplicity
 _atom_site_fract_x
 _atom_site_fract_y
 _atom_site_fract_z
 _atom_site_occupancy
  Sr  Sr0  1  0.94739311  0.00000000  1.00000000  1
  La  La1  1  0.56185991  0.50000000  0.50000000  1
  S  S2  1  0.28920172  0.00000000  0.50000000  1
  O  O3  1  0.67425982  0.50000000  0.00000000  1
  O  O4  1  0.06807270  0.50000000  0.50000000  1
