# generated using pymatgen
data_AgOsO3
_symmetry_space_group_name_H-M   'P 1'
_cell_length_a   4.07963325
_cell_length_b   4.07963325
_cell_length_c   4.07963325
_cell_angle_alpha   90.00000000
_cell_angle_beta   90.00000000
_cell_angle_gamma   90.00000000
_symmetry_Int_Tables_number   1
_chemical_formula_structural   AgOsO3
_chemical_formula_sum   'Ag1 Os1 O3'
_cell_volume   67.89899820
_cell_formula_units_Z   1
loop_
 _symmetry_equiv_pos_site_id
 _symmetry_equiv_pos_as_xyz
  1  'x, y, z'
loop_
 _atom_site_type_symbol
 _atom_site_label
 _atom_site_symmetry_multiplicity
 _atom_site_fract_x
 _atom_site_fract_y
 _atom_site_fract_z
 _atom_site_occupancy
  Os  Os0  1  0.28515524  0.00000000  0.00000000  1
  Ag  Ag1  1  0.69369853  0.50000000  0.50000000  1
  O  O2  1  0.27820303  0.00000000  0.50000000  1
  O  O3  1  0.27820303  0.50000000  0.00000000  1
  O  O4  1  0.17892000  0.50000000  0.50000000  1
