# generated using pymatgen
data_LiReO3
_symmetry_space_group_name_H-M   'P 1'
_cell_length_a   3.85712543
_cell_length_b   3.85712543
_cell_length_c   3.85712543
_cell_angle_alpha   90.00000000
_cell_angle_beta   90.00000000
_cell_angle_gamma   90.00000000
_symmetry_Int_Tables_number   1
_chemical_formula_structural   LiReO3
_chemical_formula_sum   'Li1 Re1 O3'
_cell_volume   57.38406199
_cell_formula_units_Z   1
loop_
 _symmetry_equiv_pos_site_id
 _symmetry_equiv_pos_as_xyz
  1  'x, y, z'
loop_
 _atom_site_type_symbol
 _atom_site_label
 _atom_site_symmetry_multiplicity
 _atom_site_fract_x
 _atom_site_fract_y
 _atom_site_fract_z
 _atom_site_occupancy
  Li  Li0  1  0.00032829  0.00000000  0.00000000  1
  Re  Re1  1  0.50269361  0.50000000  0.50000000  1
  O  O2  1  0.50313285  0.00000000  0.50000000  1
  O  O3  1  0.50313285  0.50000000  0.00000000  1
  O  O4  1  0.00272771  0.50000000  0.50000000  1
