# generated using pymatgen
data_NaBiN3
_symmetry_space_group_name_H-M   'P 1'
_cell_length_a   4.37161016
_cell_length_b   4.37161016
_cell_length_c   4.37161016
_cell_angle_alpha   90.00000000
_cell_angle_beta   90.00000000
_cell_angle_gamma   90.00000000
_symmetry_Int_Tables_number   1
_chemical_formula_structural   NaBiN3
_chemical_formula_sum   'Na1 Bi1 N3'
_cell_volume   83.54573439
_cell_formula_units_Z   1
loop_
 _symmetry_equiv_pos_site_id
 _symmetry_equiv_pos_as_xyz
  1  'x, y, z'
loop_
 _atom_site_type_symbol
 _atom_site_label
 _atom_site_symmetry_multiplicity
 _atom_site_fract_x
 _atom_site_fract_y
 _atom_site_fract_z
 _atom_site_occupancy
  Na  Na0  1  0.12019395  1.00000000  0.00000000  1
  Bi  Bi1  1  0.54121846  0.50000000  0.50000000  1
  N  N2  1  0.39906844  0.00000000  0.50000000  1
  N  N3  1  0.39906844  0.50000000  0.00000000  1
  N  N4  1  0.03715884  0.50000000  0.50000000  1
