# generated using pymatgen
data_GaSnN2O
_symmetry_space_group_name_H-M   'P 1'
_cell_length_a   4.22882662
_cell_length_b   4.22882662
_cell_length_c   4.22882662
_cell_angle_alpha   90.00000000
_cell_angle_beta   90.00000000
_cell_angle_gamma   90.00000000
_symmetry_Int_Tables_number   1
_chemical_formula_structural   GaSnN2O
_chemical_formula_sum   'Ga1 Sn1 N2 O1'
_cell_volume   75.62399896
_cell_formula_units_Z   1
loop_
 _symmetry_equiv_pos_site_id
 _symmetry_equiv_pos_as_xyz
  1  'x, y, z'
loop_
 _atom_site_type_symbol
 _atom_site_label
 _atom_site_symmetry_multiplicity
 _atom_site_fract_x
 _atom_site_fract_y
 _atom_site_fract_z
 _atom_site_occupancy
  Ga  Ga0  1  0.00567449  0.00000000  0.00000000  1
  Sn  Sn1  1  0.50108157  0.50000000  0.50000000  1
  N  N2  1  0.49984416  0.00000000  0.50000000  1
  N  N3  1  0.49984416  0.50000000  0.00000000  1
  O  O4  1  0.00060631  0.50000000  0.50000000  1
