# generated using pymatgen
data_CdReNO2
_symmetry_space_group_name_H-M   'P 1'
_cell_length_a   3.92388319
_cell_length_b   3.92388319
_cell_length_c   3.92388319
_cell_angle_alpha   90.00000000
_cell_angle_beta   90.00000000
_cell_angle_gamma   90.00000000
_symmetry_Int_Tables_number   1
_chemical_formula_structural   CdReNO2
_chemical_formula_sum   'Cd1 Re1 N1 O2'
_cell_volume   60.41547743
_cell_formula_units_Z   1
loop_
 _symmetry_equiv_pos_site_id
 _symmetry_equiv_pos_as_xyz
  1  'x, y, z'
loop_
 _atom_site_type_symbol
 _atom_site_label
 _atom_site_symmetry_multiplicity
 _atom_site_fract_x
 _atom_site_fract_y
 _atom_site_fract_z
 _atom_site_occupancy
  Cd  Cd0  1  0.01910957  0.00000000  0.00000000  1
  Re  Re1  1  0.50004400  0.50000000  0.50000000  1
  N  N2  1  0.49702800  0.00000000  0.50000000  1
  O  O3  1  0.50084718  0.50000000  0.00000000  1
  O  O4  1  0.99908394  0.50000000  0.50000000  1
