# generated using pymatgen
data_NiOsO3
_symmetry_space_group_name_H-M   'P 1'
_cell_length_a   3.80143579
_cell_length_b   3.80143579
_cell_length_c   3.80143579
_cell_angle_alpha   90.00000000
_cell_angle_beta   90.00000000
_cell_angle_gamma   90.00000000
_symmetry_Int_Tables_number   1
_chemical_formula_structural   NiOsO3
_chemical_formula_sum   'Ni1 Os1 O3'
_cell_volume   54.93422187
_cell_formula_units_Z   1
loop_
 _symmetry_equiv_pos_site_id
 _symmetry_equiv_pos_as_xyz
  1  'x, y, z'
loop_
 _atom_site_type_symbol
 _atom_site_label
 _atom_site_symmetry_multiplicity
 _atom_site_fract_x
 _atom_site_fract_y
 _atom_site_fract_z
 _atom_site_occupancy
  Os  Os0  1  0.15483253  0.00000000  0.00000000  1
  Ni  Ni1  1  0.48404478  0.50000000  0.50000000  1
  O  O2  1  0.40612091  0.00000000  0.50000000  1
  O  O3  1  0.40612091  0.50000000  0.00000000  1
  O  O4  1  0.96797724  0.50000000  0.50000000  1
