# generated using pymatgen
data_FeAsN2O
_symmetry_space_group_name_H-M   'P 1'
_cell_length_a   3.82491474
_cell_length_b   3.82491474
_cell_length_c   3.82491474
_cell_angle_alpha   90.00000000
_cell_angle_beta   90.00000000
_cell_angle_gamma   90.00000000
_symmetry_Int_Tables_number   1
_chemical_formula_structural   FeAsN2O
_chemical_formula_sum   'Fe1 As1 N2 O1'
_cell_volume   55.95839847
_cell_formula_units_Z   1
loop_
 _symmetry_equiv_pos_site_id
 _symmetry_equiv_pos_as_xyz
  1  'x, y, z'
loop_
 _atom_site_type_symbol
 _atom_site_label
 _atom_site_symmetry_multiplicity
 _atom_site_fract_x
 _atom_site_fract_y
 _atom_site_fract_z
 _atom_site_occupancy
  Fe  Fe0  1  0.51913582  0.00000000  0.00000000  1
  As  As1  1  0.22584779  0.50000000  0.50000000  1
  N  N2  1  0.34619205  0.00000000  0.50000000  1
  N  N3  1  0.34619205  0.50000000  0.00000000  1
  O  O4  1  0.76686004  0.50000000  0.50000000  1
