# generated using pymatgen
data_CsInNOF
_symmetry_space_group_name_H-M   'P 1'
_cell_length_a   4.50639489
_cell_length_b   4.50639489
_cell_length_c   4.50639489
_cell_angle_alpha   90.00000000
_cell_angle_beta   90.00000000
_cell_angle_gamma   90.00000000
_symmetry_Int_Tables_number   1
_chemical_formula_structural   CsInNOF
_chemical_formula_sum   'Cs1 In1 N1 O1 F1'
_cell_volume   91.51404196
_cell_formula_units_Z   1
loop_
 _symmetry_equiv_pos_site_id
 _symmetry_equiv_pos_as_xyz
  1  'x, y, z'
loop_
 _atom_site_type_symbol
 _atom_site_label
 _atom_site_symmetry_multiplicity
 _atom_site_fract_x
 _atom_site_fract_y
 _atom_site_fract_z
 _atom_site_occupancy
  Cs  Cs0  1  0.00125618  0.00000000  0.00000000  1
  In  In1  1  0.50826752  0.50000000  0.50000000  1
  F  F2  1  0.50001300  0.00000000  0.50000000  1
  N  N3  1  0.49991063  0.50000000  0.00000000  1
  O  O4  1  0.00514999  0.50000000  0.50000000  1
