# generated using pymatgen
data_ScAuNO2
_symmetry_space_group_name_H-M   'P 1'
_cell_length_a   4.10553029
_cell_length_b   4.10553029
_cell_length_c   4.10553029
_cell_angle_alpha   90.00000000
_cell_angle_beta   90.00000000
_cell_angle_gamma   90.00000000
_symmetry_Int_Tables_number   1
_chemical_formula_structural   ScAuNO2
_chemical_formula_sum   'Sc1 Au1 N1 O2'
_cell_volume   69.20026872
_cell_formula_units_Z   1
loop_
 _symmetry_equiv_pos_site_id
 _symmetry_equiv_pos_as_xyz
  1  'x, y, z'
loop_
 _atom_site_type_symbol
 _atom_site_label
 _atom_site_symmetry_multiplicity
 _atom_site_fract_x
 _atom_site_fract_y
 _atom_site_fract_z
 _atom_site_occupancy
  Sc  Sc0  1  0.96813112  1.00000000  0.00000000  1
  Au  Au1  1  0.32884799  0.50000000  0.50000000  1
  N  N2  1  0.21880723  0.00000000  0.50000000  1
  O  O3  1  0.84149121  0.50000000  0.00000000  1
  O  O4  1  0.81459899  0.50000000  0.50000000  1
