# generated using pymatgen
data_PdRhNO2
_symmetry_space_group_name_H-M   'P 1'
_cell_length_a   3.90851266
_cell_length_b   3.90851266
_cell_length_c   3.90851266
_cell_angle_alpha   90.00000000
_cell_angle_beta   90.00000000
_cell_angle_gamma   90.00000000
_symmetry_Int_Tables_number   1
_chemical_formula_structural   PdRhNO2
_chemical_formula_sum   'Pd1 Rh1 N1 O2'
_cell_volume   59.70828106
_cell_formula_units_Z   1
loop_
 _symmetry_equiv_pos_site_id
 _symmetry_equiv_pos_as_xyz
  1  'x, y, z'
loop_
 _atom_site_type_symbol
 _atom_site_label
 _atom_site_symmetry_multiplicity
 _atom_site_fract_x
 _atom_site_fract_y
 _atom_site_fract_z
 _atom_site_occupancy
  Pd  Pd0  1  0.00093730  0.00000000  0.00000000  1
  Rh  Rh1  1  0.50393570  0.50000000  0.50000000  1
  N  N2  1  0.50418429  0.00000000  0.50000000  1
  O  O3  1  0.49727484  0.50000000  0.00000000  1
  O  O4  1  0.00280032  0.50000000  0.50000000  1
