# generated using pymatgen
data_TaCrN3
_symmetry_space_group_name_H-M   'P 1'
_cell_length_a   3.69705742
_cell_length_b   3.69705742
_cell_length_c   3.69705742
_cell_angle_alpha   90.00000000
_cell_angle_beta   90.00000000
_cell_angle_gamma   90.00000000
_symmetry_Int_Tables_number   1
_chemical_formula_structural   TaCrN3
_chemical_formula_sum   'Ta1 Cr1 N3'
_cell_volume   50.53224432
_cell_formula_units_Z   1
loop_
 _symmetry_equiv_pos_site_id
 _symmetry_equiv_pos_as_xyz
  1  'x, y, z'
loop_
 _atom_site_type_symbol
 _atom_site_label
 _atom_site_symmetry_multiplicity
 _atom_site_fract_x
 _atom_site_fract_y
 _atom_site_fract_z
 _atom_site_occupancy
  Ta  Ta0  1  0.00010909  0.00000000  0.00000000  1
  Cr  Cr1  1  0.50728325  0.50000000  0.50000000  1
  N  N2  1  0.49927430  0.00000000  0.50000000  1
  N  N3  1  0.49927430  0.50000000  0.00000000  1
  N  N4  1  0.00444039  0.50000000  0.50000000  1
