# generated using pymatgen
data_ZrTeNOF
_symmetry_space_group_name_H-M   'P 1'
_cell_length_a   4.30409866
_cell_length_b   4.30409866
_cell_length_c   4.30409866
_cell_angle_alpha   90.00000000
_cell_angle_beta   90.00000000
_cell_angle_gamma   90.00000000
_symmetry_Int_Tables_number   1
_chemical_formula_structural   ZrTeNOF
_chemical_formula_sum   'Zr1 Te1 N1 O1 F1'
_cell_volume   79.73456931
_cell_formula_units_Z   1
loop_
 _symmetry_equiv_pos_site_id
 _symmetry_equiv_pos_as_xyz
  1  'x, y, z'
loop_
 _atom_site_type_symbol
 _atom_site_label
 _atom_site_symmetry_multiplicity
 _atom_site_fract_x
 _atom_site_fract_y
 _atom_site_fract_z
 _atom_site_occupancy
  Te  Te0  1  0.11220187  0.00000000  0.00000000  1
  Zr  Zr1  1  0.49302456  0.50000000  0.50000000  1
  F  F2  1  0.56247622  0.00000000  0.50000000  1
  N  N3  1  0.36658700  0.50000000  0.00000000  1
  O  O4  1  0.94774445  0.50000000  0.50000000  1
