# generated using pymatgen
data_HfZrNO2
_symmetry_space_group_name_H-M   'P 1'
_cell_length_a   4.17118283
_cell_length_b   4.17118283
_cell_length_c   4.17118283
_cell_angle_alpha   90.00000000
_cell_angle_beta   90.00000000
_cell_angle_gamma   90.00000000
_symmetry_Int_Tables_number   1
_chemical_formula_structural   HfZrNO2
_chemical_formula_sum   'Hf1 Zr1 N1 O2'
_cell_volume   72.57343507
_cell_formula_units_Z   1
loop_
 _symmetry_equiv_pos_site_id
 _symmetry_equiv_pos_as_xyz
  1  'x, y, z'
loop_
 _atom_site_type_symbol
 _atom_site_label
 _atom_site_symmetry_multiplicity
 _atom_site_fract_x
 _atom_site_fract_y
 _atom_site_fract_z
 _atom_site_occupancy
  Hf  Hf0  1  0.22156209  0.00000000  0.00000000  1
  Zr  Zr1  1  0.52057211  0.50000000  0.50000000  1
  N  N2  1  0.37933766  0.00000000  0.50000000  1
  O  O3  1  0.37838180  0.50000000  0.00000000  1
  O  O4  1  0.98330504  0.50000000  0.50000000  1
