# generated using pymatgen
data_Nb2NO2
_symmetry_space_group_name_H-M   'P 1'
_cell_length_a   4.13951759
_cell_length_b   4.13951759
_cell_length_c   4.13951759
_cell_angle_alpha   90.00000000
_cell_angle_beta   90.00000000
_cell_angle_gamma   90.00000000
_symmetry_Int_Tables_number   1
_chemical_formula_structural   Nb2NO2
_chemical_formula_sum   'Nb2 N1 O2'
_cell_volume   70.93314170
_cell_formula_units_Z   1
loop_
 _symmetry_equiv_pos_site_id
 _symmetry_equiv_pos_as_xyz
  1  'x, y, z'
loop_
 _atom_site_type_symbol
 _atom_site_label
 _atom_site_symmetry_multiplicity
 _atom_site_fract_x
 _atom_site_fract_y
 _atom_site_fract_z
 _atom_site_occupancy
  Nb  Nb0  1  0.29786749  0.00000000  1.00000000  1
  Nb  Nb1  1  0.52487935  0.50000000  0.50000000  1
  N  N2  1  0.41030813  0.00000000  0.50000000  1
  O  O3  1  0.33049726  0.50000000  0.00000000  1
  O  O4  1  0.97552821  0.50000000  0.50000000  1
