# generated using pymatgen
data_ScPtO3
_symmetry_space_group_name_H-M   'P 1'
_cell_length_a   4.07667470
_cell_length_b   4.07667470
_cell_length_c   4.07667470
_cell_angle_alpha   90.00000000
_cell_angle_beta   90.00000000
_cell_angle_gamma   90.00000000
_symmetry_Int_Tables_number   1
_chemical_formula_structural   ScPtO3
_chemical_formula_sum   'Sc1 Pt1 O3'
_cell_volume   67.75138446
_cell_formula_units_Z   1
loop_
 _symmetry_equiv_pos_site_id
 _symmetry_equiv_pos_as_xyz
  1  'x, y, z'
loop_
 _atom_site_type_symbol
 _atom_site_label
 _atom_site_symmetry_multiplicity
 _atom_site_fract_x
 _atom_site_fract_y
 _atom_site_fract_z
 _atom_site_occupancy
  Pt  Pt0  1  0.00023140  0.00000000  0.00000000  1
  Sc  Sc1  1  0.50638517  0.50000000  0.50000000  1
  O  O2  1  0.49977932  0.00000000  0.50000000  1
  O  O3  1  0.49977932  0.50000000  0.00000000  1
  O  O4  1  0.00465232  0.50000000  0.50000000  1
