# generated using pymatgen
data_KGeN2O
_symmetry_space_group_name_H-M   'P 1'
_cell_length_a   4.39824250
_cell_length_b   4.39824250
_cell_length_c   4.39824250
_cell_angle_alpha   90.00000000
_cell_angle_beta   90.00000000
_cell_angle_gamma   90.00000000
_symmetry_Int_Tables_number   1
_chemical_formula_structural   KGeN2O
_chemical_formula_sum   'K1 Ge1 N2 O1'
_cell_volume   85.08196489
_cell_formula_units_Z   1
loop_
 _symmetry_equiv_pos_site_id
 _symmetry_equiv_pos_as_xyz
  1  'x, y, z'
loop_
 _atom_site_type_symbol
 _atom_site_label
 _atom_site_symmetry_multiplicity
 _atom_site_fract_x
 _atom_site_fract_y
 _atom_site_fract_z
 _atom_site_occupancy
  Ge  Ge0  1  0.00026247  0.00000000  0.00000000  1
  K  K1  1  0.50481378  0.50000000  0.50000000  1
  N  N2  1  0.49998417  0.00000000  0.50000000  1
  N  N3  1  0.49998417  0.50000000  0.00000000  1
  O  O4  1  0.00442286  0.50000000  0.50000000  1
