# generated using pymatgen
data_MnBeSO2
_symmetry_space_group_name_H-M   'P 1'
_cell_length_a   4.04497841
_cell_length_b   4.04497841
_cell_length_c   4.04497841
_cell_angle_alpha   90.00000000
_cell_angle_beta   90.00000000
_cell_angle_gamma   90.00000000
_symmetry_Int_Tables_number   1
_chemical_formula_structural   MnBeSO2
_chemical_formula_sum   'Mn1 Be1 S1 O2'
_cell_volume   66.18333144
_cell_formula_units_Z   1
loop_
 _symmetry_equiv_pos_site_id
 _symmetry_equiv_pos_as_xyz
  1  'x, y, z'
loop_
 _atom_site_type_symbol
 _atom_site_label
 _atom_site_symmetry_multiplicity
 _atom_site_fract_x
 _atom_site_fract_y
 _atom_site_fract_z
 _atom_site_occupancy
  Be  Be0  1  0.40823223  0.00000000  1.00000000  1
  Mn  Mn1  1  0.52332231  0.50000000  0.50000000  1
  S  S2  1  0.24946947  0.00000000  0.50000000  1
  O  O3  1  0.48104505  0.50000000  0.00000000  1
  O  O4  1  0.96623904  0.50000000  0.50000000  1
