# generated using pymatgen
data_ZnCoNO2
_symmetry_space_group_name_H-M   'P 1'
_cell_length_a   3.78963938
_cell_length_b   3.78963938
_cell_length_c   3.78963938
_cell_angle_alpha   90.00000000
_cell_angle_beta   90.00000000
_cell_angle_gamma   90.00000000
_symmetry_Int_Tables_number   1
_chemical_formula_structural   ZnCoNO2
_chemical_formula_sum   'Zn1 Co1 N1 O2'
_cell_volume   54.42440038
_cell_formula_units_Z   1
loop_
 _symmetry_equiv_pos_site_id
 _symmetry_equiv_pos_as_xyz
  1  'x, y, z'
loop_
 _atom_site_type_symbol
 _atom_site_label
 _atom_site_symmetry_multiplicity
 _atom_site_fract_x
 _atom_site_fract_y
 _atom_site_fract_z
 _atom_site_occupancy
  Zn  Zn0  1  0.16101678  0.00000000  0.00000000  1
  Co  Co1  1  0.50252388  0.50000000  0.50000000  1
  N  N2  1  0.33679534  0.00000000  0.50000000  1
  O  O3  1  0.46767668  0.50000000  0.00000000  1
  O  O4  1  0.96660291  0.50000000  0.50000000  1
