# generated using pymatgen
data_YScSO2
_symmetry_space_group_name_H-M   'P 1'
_cell_length_a   4.37394846
_cell_length_b   4.37394846
_cell_length_c   4.37394846
_cell_angle_alpha   90.00000000
_cell_angle_beta   90.00000000
_cell_angle_gamma   90.00000000
_symmetry_Int_Tables_number   1
_chemical_formula_structural   YScSO2
_chemical_formula_sum   'Y1 Sc1 S1 O2'
_cell_volume   83.67986767
_cell_formula_units_Z   1
loop_
 _symmetry_equiv_pos_site_id
 _symmetry_equiv_pos_as_xyz
  1  'x, y, z'
loop_
 _atom_site_type_symbol
 _atom_site_label
 _atom_site_symmetry_multiplicity
 _atom_site_fract_x
 _atom_site_fract_y
 _atom_site_fract_z
 _atom_site_occupancy
  Y  Y0  1  0.88594636  0.00000000  0.00000000  1
  Sc  Sc1  1  0.56910324  0.50000000  0.50000000  1
  S  S2  1  0.37179644  0.00000000  0.50000000  1
  O  O3  1  0.65204998  0.50000000  0.00000000  1
  O  O4  1  0.01254880  0.50000000  0.50000000  1
