# generated using pymatgen
data_TlCuNO2
_symmetry_space_group_name_H-M   'P 1'
_cell_length_a   3.89195526
_cell_length_b   3.89195526
_cell_length_c   3.89195526
_cell_angle_alpha   90.00000000
_cell_angle_beta   90.00000000
_cell_angle_gamma   90.00000000
_symmetry_Int_Tables_number   1
_chemical_formula_structural   TlCuNO2
_chemical_formula_sum   'Tl1 Cu1 N1 O2'
_cell_volume   58.95267528
_cell_formula_units_Z   1
loop_
 _symmetry_equiv_pos_site_id
 _symmetry_equiv_pos_as_xyz
  1  'x, y, z'
loop_
 _atom_site_type_symbol
 _atom_site_label
 _atom_site_symmetry_multiplicity
 _atom_site_fract_x
 _atom_site_fract_y
 _atom_site_fract_z
 _atom_site_occupancy
  Tl  Tl0  1  0.00180119  0.00000000  0.00000000  1
  Cu  Cu1  1  0.50188321  0.50000000  0.50000000  1
  N  N2  1  0.50051135  0.00000000  0.50000000  1
  O  O3  1  0.50097076  0.50000000  0.00000000  1
  O  O4  1  0.00191679  0.50000000  0.50000000  1
