# generated using pymatgen
data_LiPbN2O
_symmetry_space_group_name_H-M   'P 1'
_cell_length_a   3.85609867
_cell_length_b   3.85609867
_cell_length_c   3.85609867
_cell_angle_alpha   90.00000000
_cell_angle_beta   90.00000000
_cell_angle_gamma   90.00000000
_symmetry_Int_Tables_number   1
_chemical_formula_structural   LiPbN2O
_chemical_formula_sum   'Li1 Pb1 N2 O1'
_cell_volume   57.33824764
_cell_formula_units_Z   1
loop_
 _symmetry_equiv_pos_site_id
 _symmetry_equiv_pos_as_xyz
  1  'x, y, z'
loop_
 _atom_site_type_symbol
 _atom_site_label
 _atom_site_symmetry_multiplicity
 _atom_site_fract_x
 _atom_site_fract_y
 _atom_site_fract_z
 _atom_site_occupancy
  Pb  Pb0  1  0.00091628  0.00000000  0.00000000  1
  Li  Li1  1  0.50484109  0.50000000  0.50000000  1
  N  N2  1  0.49938106  0.00000000  0.50000000  1
  N  N3  1  0.49938106  0.50000000  0.00000000  1
  O  O4  1  0.00585499  0.50000000  0.50000000  1
