# generated using pymatgen
data_YVSO2
_symmetry_space_group_name_H-M   'P 1'
_cell_length_a   4.52639083
_cell_length_b   4.52639083
_cell_length_c   4.52639083
_cell_angle_alpha   90.00000000
_cell_angle_beta   90.00000000
_cell_angle_gamma   90.00000000
_symmetry_Int_Tables_number   1
_chemical_formula_structural   YVSO2
_chemical_formula_sum   'Y1 V1 S1 O2'
_cell_volume   92.73766395
_cell_formula_units_Z   1
loop_
 _symmetry_equiv_pos_site_id
 _symmetry_equiv_pos_as_xyz
  1  'x, y, z'
loop_
 _atom_site_type_symbol
 _atom_site_label
 _atom_site_symmetry_multiplicity
 _atom_site_fract_x
 _atom_site_fract_y
 _atom_site_fract_z
 _atom_site_occupancy
  V  V0  1  0.89579553  0.00000000  0.00000000  1
  Y  Y1  1  0.69018010  0.50000000  0.50000000  1
  S  S2  1  0.05173822  0.00000000  0.50000000  1
  O  O3  1  0.73959916  0.50000000  0.00000000  1
  O  O4  1  0.16791262  0.50000000  0.50000000  1
