# generated using pymatgen
data_ScCdN3
_symmetry_space_group_name_H-M   'P 1'
_cell_length_a   4.22491947
_cell_length_b   4.22491947
_cell_length_c   4.22491947
_cell_angle_alpha   90.00000000
_cell_angle_beta   90.00000000
_cell_angle_gamma   90.00000000
_symmetry_Int_Tables_number   1
_chemical_formula_structural   ScCdN3
_chemical_formula_sum   'Sc1 Cd1 N3'
_cell_volume   75.41457816
_cell_formula_units_Z   1
loop_
 _symmetry_equiv_pos_site_id
 _symmetry_equiv_pos_as_xyz
  1  'x, y, z'
loop_
 _atom_site_type_symbol
 _atom_site_label
 _atom_site_symmetry_multiplicity
 _atom_site_fract_x
 _atom_site_fract_y
 _atom_site_fract_z
 _atom_site_occupancy
  Cd  Cd0  1  0.00027387  0.00000000  0.00000000  1
  Sc  Sc1  1  0.50441284  0.50000000  0.50000000  1
  N  N2  1  0.49985052  0.00000000  0.50000000  1
  N  N3  1  0.49985052  0.50000000  0.00000000  1
  N  N4  1  0.00478630  0.50000000  0.50000000  1
