# generated using pymatgen
data_KZnN3
_symmetry_space_group_name_H-M   'P 1'
_cell_length_a   4.57735137
_cell_length_b   4.57735137
_cell_length_c   4.57735137
_cell_angle_alpha   90.00000000
_cell_angle_beta   90.00000000
_cell_angle_gamma   90.00000000
_symmetry_Int_Tables_number   1
_chemical_formula_structural   KZnN3
_chemical_formula_sum   'K1 Zn1 N3'
_cell_volume   95.90533209
_cell_formula_units_Z   1
loop_
 _symmetry_equiv_pos_site_id
 _symmetry_equiv_pos_as_xyz
  1  'x, y, z'
loop_
 _atom_site_type_symbol
 _atom_site_label
 _atom_site_symmetry_multiplicity
 _atom_site_fract_x
 _atom_site_fract_y
 _atom_site_fract_z
 _atom_site_occupancy
  Zn  Zn0  1  0.00011672  0.00000000  0.00000000  1
  K  K1  1  0.50487440  0.50000000  0.50000000  1
  N  N2  1  0.49986416  0.00000000  0.50000000  1
  N  N3  1  0.49986416  0.50000000  0.00000000  1
  N  N4  1  0.00469701  0.50000000  0.50000000  1
