# generated using pymatgen
data_TePdSO2
_symmetry_space_group_name_H-M   'P 1'
_cell_length_a   4.39244710
_cell_length_b   4.39244710
_cell_length_c   4.39244710
_cell_angle_alpha   90.00000000
_cell_angle_beta   90.00000000
_cell_angle_gamma   90.00000000
_symmetry_Int_Tables_number   1
_chemical_formula_structural   TePdSO2
_chemical_formula_sum   'Te1 Pd1 S1 O2'
_cell_volume   84.74608027
_cell_formula_units_Z   1
loop_
 _symmetry_equiv_pos_site_id
 _symmetry_equiv_pos_as_xyz
  1  'x, y, z'
loop_
 _atom_site_type_symbol
 _atom_site_label
 _atom_site_symmetry_multiplicity
 _atom_site_fract_x
 _atom_site_fract_y
 _atom_site_fract_z
 _atom_site_occupancy
  Te  Te0  1  0.11380510  0.00000000  0.00000000  1
  Pd  Pd1  1  0.50799853  0.50000000  0.50000000  1
  S  S2  1  0.40153510  0.00000000  0.50000000  1
  O  O3  1  0.34959463  0.50000000  0.00000000  1
  O  O4  1  0.98241959  0.50000000  0.50000000  1
