# generated using pymatgen
data_PbAuNO2
_symmetry_space_group_name_H-M   'P 1'
_cell_length_a   4.21582483
_cell_length_b   4.21582483
_cell_length_c   4.21582483
_cell_angle_alpha   90.00000000
_cell_angle_beta   90.00000000
_cell_angle_gamma   90.00000000
_symmetry_Int_Tables_number   1
_chemical_formula_structural   PbAuNO2
_chemical_formula_sum   'Pb1 Au1 N1 O2'
_cell_volume   74.92860933
_cell_formula_units_Z   1
loop_
 _symmetry_equiv_pos_site_id
 _symmetry_equiv_pos_as_xyz
  1  'x, y, z'
loop_
 _atom_site_type_symbol
 _atom_site_label
 _atom_site_symmetry_multiplicity
 _atom_site_fract_x
 _atom_site_fract_y
 _atom_site_fract_z
 _atom_site_occupancy
  Pb  Pb0  1  0.12670075  0.00000000  0.00000000  1
  Au  Au1  1  0.55436762  0.50000000  0.50000000  1
  N  N2  1  0.45046235  0.00000000  0.50000000  1
  O  O3  1  0.46476649  0.50000000  0.00000000  1
  O  O4  1  0.04126488  0.50000000  0.50000000  1
