# generated using pymatgen
data_ReAuSO2
_symmetry_space_group_name_H-M   'P 1'
_cell_length_a   4.32575873
_cell_length_b   4.32575873
_cell_length_c   4.32575873
_cell_angle_alpha   90.00000000
_cell_angle_beta   90.00000000
_cell_angle_gamma   90.00000000
_symmetry_Int_Tables_number   1
_chemical_formula_structural   ReAuSO2
_chemical_formula_sum   'Re1 Au1 S1 O2'
_cell_volume   80.94441315
_cell_formula_units_Z   1
loop_
 _symmetry_equiv_pos_site_id
 _symmetry_equiv_pos_as_xyz
  1  'x, y, z'
loop_
 _atom_site_type_symbol
 _atom_site_label
 _atom_site_symmetry_multiplicity
 _atom_site_fract_x
 _atom_site_fract_y
 _atom_site_fract_z
 _atom_site_occupancy
  Re  Re0  1  0.34091929  0.00000000  0.00000000  1
  Au  Au1  1  0.52834982  0.50000000  0.50000000  1
  S  S2  1  0.10300457  0.00000000  0.50000000  1
  O  O3  1  0.42148663  0.50000000  0.00000000  1
  O  O4  1  0.01088311  0.50000000  0.50000000  1
