# generated using pymatgen
data_ZrTiN2O
_symmetry_space_group_name_H-M   'P 1'
_cell_length_a   3.92311192
_cell_length_b   3.92311192
_cell_length_c   3.92311192
_cell_angle_alpha   90.00000000
_cell_angle_beta   90.00000000
_cell_angle_gamma   90.00000000
_symmetry_Int_Tables_number   1
_chemical_formula_structural   ZrTiN2O
_chemical_formula_sum   'Zr1 Ti1 N2 O1'
_cell_volume   60.37985909
_cell_formula_units_Z   1
loop_
 _symmetry_equiv_pos_site_id
 _symmetry_equiv_pos_as_xyz
  1  'x, y, z'
loop_
 _atom_site_type_symbol
 _atom_site_label
 _atom_site_symmetry_multiplicity
 _atom_site_fract_x
 _atom_site_fract_y
 _atom_site_fract_z
 _atom_site_occupancy
  Zr  Zr0  1  0.17278961  0.00000000  0.00000000  1
  Ti  Ti1  1  0.52878600  0.50000000  0.50000000  1
  N  N2  1  0.42901211  0.00000000  0.50000000  1
  N  N3  1  0.42901211  0.50000000  0.00000000  1
  O  O4  1  0.98680827  0.50000000  0.50000000  1
