# generated using pymatgen
data_TaVSO2
_symmetry_space_group_name_H-M   'P 1'
_cell_length_a   4.19528372
_cell_length_b   4.19528372
_cell_length_c   4.19528372
_cell_angle_alpha   90.00000000
_cell_angle_beta   90.00000000
_cell_angle_gamma   90.00000000
_symmetry_Int_Tables_number   1
_chemical_formula_structural   TaVSO2
_chemical_formula_sum   'Ta1 V1 S1 O2'
_cell_volume   73.83869437
_cell_formula_units_Z   1
loop_
 _symmetry_equiv_pos_site_id
 _symmetry_equiv_pos_as_xyz
  1  'x, y, z'
loop_
 _atom_site_type_symbol
 _atom_site_label
 _atom_site_symmetry_multiplicity
 _atom_site_fract_x
 _atom_site_fract_y
 _atom_site_fract_z
 _atom_site_occupancy
  Ta  Ta0  1  0.67342105  0.00000000  0.00000000  1
  V  V1  1  0.65648409  0.50000000  0.50000000  1
  S  S2  1  0.37638704  0.00000000  0.50000000  1
  O  O3  1  0.71067241  0.50000000  0.00000000  1
  O  O4  1  0.11178404  0.50000000  0.50000000  1
