# generated using pymatgen
data_InRhN3
_symmetry_space_group_name_H-M   'P 1'
_cell_length_a   4.04316681
_cell_length_b   4.04316681
_cell_length_c   4.04316681
_cell_angle_alpha   90.00000000
_cell_angle_beta   90.00000000
_cell_angle_gamma   90.00000000
_symmetry_Int_Tables_number   1
_chemical_formula_structural   InRhN3
_chemical_formula_sum   'In1 Rh1 N3'
_cell_volume   66.09444778
_cell_formula_units_Z   1
loop_
 _symmetry_equiv_pos_site_id
 _symmetry_equiv_pos_as_xyz
  1  'x, y, z'
loop_
 _atom_site_type_symbol
 _atom_site_label
 _atom_site_symmetry_multiplicity
 _atom_site_fract_x
 _atom_site_fract_y
 _atom_site_fract_z
 _atom_site_occupancy
  In  In0  1  0.14951812  1.00000000  0.00000000  1
  Rh  Rh1  1  0.56744655  0.50000000  0.50000000  1
  N  N2  1  0.39311434  1.00000000  0.50000000  1
  N  N3  1  0.39311434  0.50000000  0.00000000  1
  N  N4  1  0.01019761  0.50000000  0.50000000  1
