# generated using pymatgen
data_BeRhN2O
_symmetry_space_group_name_H-M   'P 1'
_cell_length_a   3.56507351
_cell_length_b   3.56507351
_cell_length_c   3.56507351
_cell_angle_alpha   90.00000000
_cell_angle_beta   90.00000000
_cell_angle_gamma   90.00000000
_symmetry_Int_Tables_number   1
_chemical_formula_structural   BeRhN2O
_chemical_formula_sum   'Be1 Rh1 N2 O1'
_cell_volume   45.31118991
_cell_formula_units_Z   1
loop_
 _symmetry_equiv_pos_site_id
 _symmetry_equiv_pos_as_xyz
  1  'x, y, z'
loop_
 _atom_site_type_symbol
 _atom_site_label
 _atom_site_symmetry_multiplicity
 _atom_site_fract_x
 _atom_site_fract_y
 _atom_site_fract_z
 _atom_site_occupancy
  Rh  Rh0  1  0.13419398  0.00000000  0.00000000  1
  Be  Be1  1  0.51509998  0.50000000  0.50000000  1
  N  N2  1  0.44817491  0.00000000  0.50000000  1
  N  N3  1  0.44817491  0.50000000  0.00000000  1
  O  O4  1  0.97200976  0.50000000  0.50000000  1
