# generated using pymatgen
data_BaFeSO2
_symmetry_space_group_name_H-M   'P 1'
_cell_length_a   4.39605725
_cell_length_b   4.39605725
_cell_length_c   4.39605725
_cell_angle_alpha   90.00000000
_cell_angle_beta   90.00000000
_cell_angle_gamma   90.00000000
_symmetry_Int_Tables_number   1
_chemical_formula_structural   BaFeSO2
_chemical_formula_sum   'Ba1 Fe1 S1 O2'
_cell_volume   84.95521050
_cell_formula_units_Z   1
loop_
 _symmetry_equiv_pos_site_id
 _symmetry_equiv_pos_as_xyz
  1  'x, y, z'
loop_
 _atom_site_type_symbol
 _atom_site_label
 _atom_site_symmetry_multiplicity
 _atom_site_fract_x
 _atom_site_fract_y
 _atom_site_fract_z
 _atom_site_occupancy
  Ba  Ba0  1  0.96348955  0.00000000  0.00000000  1
  Fe  Fe1  1  0.57365445  0.50000000  0.50000000  1
  S  S2  1  0.44783801  0.00000000  0.50000000  1
  O  O3  1  0.54517280  0.50000000  0.00000000  1
  O  O4  1  0.98922933  0.50000000  0.50000000  1
