# generated using pymatgen
data_MgBeNO2
_symmetry_space_group_name_H-M   'P 1'
_cell_length_a   3.53817709
_cell_length_b   3.53817709
_cell_length_c   3.53817709
_cell_angle_alpha   90.00000000
_cell_angle_beta   90.00000000
_cell_angle_gamma   90.00000000
_symmetry_Int_Tables_number   1
_chemical_formula_structural   MgBeNO2
_chemical_formula_sum   'Mg1 Be1 N1 O2'
_cell_volume   44.29336745
_cell_formula_units_Z   1
loop_
 _symmetry_equiv_pos_site_id
 _symmetry_equiv_pos_as_xyz
  1  'x, y, z'
loop_
 _atom_site_type_symbol
 _atom_site_label
 _atom_site_symmetry_multiplicity
 _atom_site_fract_x
 _atom_site_fract_y
 _atom_site_fract_z
 _atom_site_occupancy
  Mg  Mg0  1  0.00235826  0.00000000  0.00000000  1
  Be  Be1  1  0.50108927  0.50000000  0.50000000  1
  N  N2  1  0.50222640  0.00000000  0.50000000  1
  O  O3  1  0.50188433  0.50000000  0.00000000  1
  O  O4  1  0.00108159  0.50000000  0.50000000  1
