# generated using pymatgen
data_ZrNbO3
_symmetry_space_group_name_H-M   'P 1'
_cell_length_a   4.16165031
_cell_length_b   4.16165031
_cell_length_c   4.16165031
_cell_angle_alpha   90.00000000
_cell_angle_beta   90.00000000
_cell_angle_gamma   90.00000000
_symmetry_Int_Tables_number   1
_chemical_formula_structural   ZrNbO3
_chemical_formula_sum   'Zr1 Nb1 O3'
_cell_volume   72.07700882
_cell_formula_units_Z   1
loop_
 _symmetry_equiv_pos_site_id
 _symmetry_equiv_pos_as_xyz
  1  'x, y, z'
loop_
 _atom_site_type_symbol
 _atom_site_label
 _atom_site_symmetry_multiplicity
 _atom_site_fract_x
 _atom_site_fract_y
 _atom_site_fract_z
 _atom_site_occupancy
  Zr  Zr0  1  0.76506288  0.00000000  0.00000000  1
  Nb  Nb1  1  0.53547651  0.50000000  0.50000000  1
  O  O2  1  0.57809570  0.00000000  0.50000000  1
  O  O3  1  0.57809570  0.50000000  0.00000000  1
  O  O4  1  0.04615184  0.50000000  0.50000000  1
