# generated using pymatgen
data_ZrPdO3
_symmetry_space_group_name_H-M   'P 1'
_cell_length_a   4.15398509
_cell_length_b   4.15398509
_cell_length_c   4.15398509
_cell_angle_alpha   90.00000000
_cell_angle_beta   90.00000000
_cell_angle_gamma   90.00000000
_symmetry_Int_Tables_number   1
_chemical_formula_structural   ZrPdO3
_chemical_formula_sum   'Zr1 Pd1 O3'
_cell_volume   71.67947255
_cell_formula_units_Z   1
loop_
 _symmetry_equiv_pos_site_id
 _symmetry_equiv_pos_as_xyz
  1  'x, y, z'
loop_
 _atom_site_type_symbol
 _atom_site_label
 _atom_site_symmetry_multiplicity
 _atom_site_fract_x
 _atom_site_fract_y
 _atom_site_fract_z
 _atom_site_occupancy
  Pd  Pd0  1  0.00032036  0.00000000  0.00000000  1
  Zr  Zr1  1  0.50617122  0.50000000  0.50000000  1
  O  O2  1  0.49976044  0.00000000  0.50000000  1
  O  O3  1  0.49976044  0.50000000  0.00000000  1
  O  O4  1  0.00416879  0.50000000  0.50000000  1
