# generated using pymatgen
data_AlGaN3
_symmetry_space_group_name_H-M   'P 1'
_cell_length_a   3.95495777
_cell_length_b   3.95495777
_cell_length_c   3.95495777
_cell_angle_alpha   90.00000000
_cell_angle_beta   90.00000000
_cell_angle_gamma   90.00000000
_symmetry_Int_Tables_number   1
_chemical_formula_structural   AlGaN3
_chemical_formula_sum   'Al1 Ga1 N3'
_cell_volume   61.86222715
_cell_formula_units_Z   1
loop_
 _symmetry_equiv_pos_site_id
 _symmetry_equiv_pos_as_xyz
  1  'x, y, z'
loop_
 _atom_site_type_symbol
 _atom_site_label
 _atom_site_symmetry_multiplicity
 _atom_site_fract_x
 _atom_site_fract_y
 _atom_site_fract_z
 _atom_site_occupancy
  Al  Al0  1  0.30353860  1.00000000  1.00000000  1
  Ga  Ga1  1  0.52912095  0.50000000  0.50000000  1
  N  N2  1  0.35668994  0.00000000  0.50000000  1
  N  N3  1  0.35668994  0.50000000  0.00000000  1
  N  N4  1  0.01836723  0.50000000  0.50000000  1
