# generated using pymatgen
data_IrOsN3
_symmetry_space_group_name_H-M   'P 1'
_cell_length_a   3.91681935
_cell_length_b   3.91681935
_cell_length_c   3.91681935
_cell_angle_alpha   90.00000000
_cell_angle_beta   90.00000000
_cell_angle_gamma   90.00000000
_symmetry_Int_Tables_number   1
_chemical_formula_structural   IrOsN3
_chemical_formula_sum   'Os1 Ir1 N3'
_cell_volume   60.08978168
_cell_formula_units_Z   1
loop_
 _symmetry_equiv_pos_site_id
 _symmetry_equiv_pos_as_xyz
  1  'x, y, z'
loop_
 _atom_site_type_symbol
 _atom_site_label
 _atom_site_symmetry_multiplicity
 _atom_site_fract_x
 _atom_site_fract_y
 _atom_site_fract_z
 _atom_site_occupancy
  Os  Os0  1  0.16686988  0.00000000  0.00000000  1
  Ir  Ir1  1  0.54358833  0.50000000  0.50000000  1
  N  N2  1  0.39541349  0.00000000  0.50000000  1
  N  N3  1  0.39541349  0.50000000  0.00000000  1
  N  N4  1  0.00344396  0.50000000  0.50000000  1
