# generated using pymatgen
data_Cs2SO2
_symmetry_space_group_name_H-M   'P 1'
_cell_length_a   5.42091349
_cell_length_b   5.42091349
_cell_length_c   5.42091349
_cell_angle_alpha   90.00000000
_cell_angle_beta   90.00000000
_cell_angle_gamma   90.00000000
_symmetry_Int_Tables_number   1
_chemical_formula_structural   Cs2SO2
_chemical_formula_sum   'Cs2 S1 O2'
_cell_volume   159.30060654
_cell_formula_units_Z   1
loop_
 _symmetry_equiv_pos_site_id
 _symmetry_equiv_pos_as_xyz
  1  'x, y, z'
loop_
 _atom_site_type_symbol
 _atom_site_label
 _atom_site_symmetry_multiplicity
 _atom_site_fract_x
 _atom_site_fract_y
 _atom_site_fract_z
 _atom_site_occupancy
  Cs  Cs0  1  0.00093371  0.00000000  0.00000000  1
  Cs  Cs1  1  0.50255936  0.50000000  0.50000000  1
  S  S2  1  0.49816592  0.00000000  0.50000000  1
  O  O3  1  0.50156248  0.50000000  0.00000000  1
  O  O4  1  0.00579081  0.50000000  0.50000000  1
