# generated using pymatgen
data_MnInN2O
_symmetry_space_group_name_H-M   'P 1'
_cell_length_a   3.80772516
_cell_length_b   3.80772516
_cell_length_c   3.80772516
_cell_angle_alpha   90.00000000
_cell_angle_beta   90.00000000
_cell_angle_gamma   90.00000000
_symmetry_Int_Tables_number   1
_chemical_formula_structural   MnInN2O
_chemical_formula_sum   'Mn1 In1 N2 O1'
_cell_volume   55.20733476
_cell_formula_units_Z   1
loop_
 _symmetry_equiv_pos_site_id
 _symmetry_equiv_pos_as_xyz
  1  'x, y, z'
loop_
 _atom_site_type_symbol
 _atom_site_label
 _atom_site_symmetry_multiplicity
 _atom_site_fract_x
 _atom_site_fract_y
 _atom_site_fract_z
 _atom_site_occupancy
  In  In0  1  0.00161088  0.00000000  0.00000000  1
  Mn  Mn1  1  0.50721047  0.50000000  0.50000000  1
  N  N2  1  0.49865914  0.00000000  0.50000000  1
  N  N3  1  0.49865914  0.50000000  0.00000000  1
  O  O4  1  0.00310329  0.50000000  0.50000000  1
