# generated using pymatgen
data_VTeO3
_symmetry_space_group_name_H-M   'P 1'
_cell_length_a   4.01197124
_cell_length_b   4.01197124
_cell_length_c   4.01197124
_cell_angle_alpha   90.00000000
_cell_angle_beta   90.00000000
_cell_angle_gamma   90.00000000
_symmetry_Int_Tables_number   1
_chemical_formula_structural   VTeO3
_chemical_formula_sum   'V1 Te1 O3'
_cell_volume   64.57634106
_cell_formula_units_Z   1
loop_
 _symmetry_equiv_pos_site_id
 _symmetry_equiv_pos_as_xyz
  1  'x, y, z'
loop_
 _atom_site_type_symbol
 _atom_site_label
 _atom_site_symmetry_multiplicity
 _atom_site_fract_x
 _atom_site_fract_y
 _atom_site_fract_z
 _atom_site_occupancy
  Te  Te0  1  0.19439831  0.00000000  0.00000000  1
  V  V1  1  0.57412279  0.50000000  0.50000000  1
  O  O2  1  0.47622815  0.00000000  0.50000000  1
  O  O3  1  0.47622815  0.50000000  0.00000000  1
  O  O4  1  0.04690528  0.50000000  0.50000000  1
