# generated using pymatgen
data_SiAuNO2
_symmetry_space_group_name_H-M   'P 1'
_cell_length_a   3.67183871
_cell_length_b   3.67183871
_cell_length_c   3.67183871
_cell_angle_alpha   90.00000000
_cell_angle_beta   90.00000000
_cell_angle_gamma   90.00000000
_symmetry_Int_Tables_number   1
_chemical_formula_structural   SiAuNO2
_chemical_formula_sum   'Si1 Au1 N1 O2'
_cell_volume   49.50519650
_cell_formula_units_Z   1
loop_
 _symmetry_equiv_pos_site_id
 _symmetry_equiv_pos_as_xyz
  1  'x, y, z'
loop_
 _atom_site_type_symbol
 _atom_site_label
 _atom_site_symmetry_multiplicity
 _atom_site_fract_x
 _atom_site_fract_y
 _atom_site_fract_z
 _atom_site_occupancy
  Au  Au0  1  0.00162128  0.00000000  0.00000000  1
  Si  Si1  1  0.50171127  0.50000000  0.50000000  1
  N  N2  1  0.50140401  0.00000000  0.50000000  1
  O  O3  1  0.50153996  0.50000000  0.00000000  1
  O  O4  1  0.00156295  0.50000000  0.50000000  1
