# generated using pymatgen
data_AgBN2O
_symmetry_space_group_name_H-M   'P 1'
_cell_length_a   3.56284733
_cell_length_b   3.56284733
_cell_length_c   3.56284733
_cell_angle_alpha   90.00000000
_cell_angle_beta   90.00000000
_cell_angle_gamma   90.00000000
_symmetry_Int_Tables_number   1
_chemical_formula_structural   AgBN2O
_chemical_formula_sum   'Ag1 B1 N2 O1'
_cell_volume   45.22636045
_cell_formula_units_Z   1
loop_
 _symmetry_equiv_pos_site_id
 _symmetry_equiv_pos_as_xyz
  1  'x, y, z'
loop_
 _atom_site_type_symbol
 _atom_site_label
 _atom_site_symmetry_multiplicity
 _atom_site_fract_x
 _atom_site_fract_y
 _atom_site_fract_z
 _atom_site_occupancy
  Ag  Ag0  1  0.06649752  0.00000000  0.00000000  1
  B  B1  1  0.56441522  0.50000000  0.50000000  1
  N  N2  1  0.46396632  0.00000000  0.50000000  1
  N  N3  1  0.46396632  0.50000000  0.00000000  1
  O  O4  1  0.95719286  0.50000000  0.50000000  1
