# generated using pymatgen
data_VZnN2O
_symmetry_space_group_name_H-M   'P 1'
_cell_length_a   3.92625622
_cell_length_b   3.92625622
_cell_length_c   3.92625622
_cell_angle_alpha   90.00000000
_cell_angle_beta   90.00000000
_cell_angle_gamma   90.00000000
_symmetry_Int_Tables_number   1
_chemical_formula_structural   VZnN2O
_chemical_formula_sum   'V1 Zn1 N2 O1'
_cell_volume   60.52515542
_cell_formula_units_Z   1
loop_
 _symmetry_equiv_pos_site_id
 _symmetry_equiv_pos_as_xyz
  1  'x, y, z'
loop_
 _atom_site_type_symbol
 _atom_site_label
 _atom_site_symmetry_multiplicity
 _atom_site_fract_x
 _atom_site_fract_y
 _atom_site_fract_z
 _atom_site_occupancy
  Zn  Zn0  1  0.25762251  0.00000000  0.00000000  1
  V  V1  1  0.49424190  0.50000000  0.50000000  1
  N  N2  1  0.41741748  0.00000000  0.50000000  1
  N  N3  1  0.41741748  0.50000000  0.00000000  1
  O  O4  1  0.94570872  0.50000000  0.50000000  1
