# generated using pymatgen
data_LiMnNO2
_symmetry_space_group_name_H-M   'P 1'
_cell_length_a   3.60672294
_cell_length_b   3.60672294
_cell_length_c   3.60672294
_cell_angle_alpha   90.00000000
_cell_angle_beta   90.00000000
_cell_angle_gamma   90.00000000
_symmetry_Int_Tables_number   1
_chemical_formula_structural   LiMnNO2
_chemical_formula_sum   'Li1 Mn1 N1 O2'
_cell_volume   46.91787652
_cell_formula_units_Z   1
loop_
 _symmetry_equiv_pos_site_id
 _symmetry_equiv_pos_as_xyz
  1  'x, y, z'
loop_
 _atom_site_type_symbol
 _atom_site_label
 _atom_site_symmetry_multiplicity
 _atom_site_fract_x
 _atom_site_fract_y
 _atom_site_fract_z
 _atom_site_occupancy
  Mn  Mn0  1  0.22698537  1.00000000  0.00000000  1
  Li  Li1  1  0.46872874  0.50000000  0.50000000  1
  N  N2  1  0.06018927  0.00000000  0.50000000  1
  O  O3  1  0.45542113  0.50000000  0.00000000  1
  O  O4  1  0.95708946  0.50000000  0.50000000  1
