# generated using pymatgen
data_NbFeN3
_symmetry_space_group_name_H-M   'P 1'
_cell_length_a   4.12081674
_cell_length_b   4.12081674
_cell_length_c   4.12081674
_cell_angle_alpha   90.00000000
_cell_angle_beta   90.00000000
_cell_angle_gamma   90.00000000
_symmetry_Int_Tables_number   1
_chemical_formula_structural   NbFeN3
_chemical_formula_sum   'Nb1 Fe1 N3'
_cell_volume   69.97612701
_cell_formula_units_Z   1
loop_
 _symmetry_equiv_pos_site_id
 _symmetry_equiv_pos_as_xyz
  1  'x, y, z'
loop_
 _atom_site_type_symbol
 _atom_site_label
 _atom_site_symmetry_multiplicity
 _atom_site_fract_x
 _atom_site_fract_y
 _atom_site_fract_z
 _atom_site_occupancy
  Fe  Fe0  1  0.31412890  0.00000000  1.00000000  1
  Nb  Nb1  1  0.23798846  0.50000000  0.50000000  1
  N  N2  1  0.31560480  0.00000000  0.50000000  1
  N  N3  1  0.31560480  0.50000000  1.00000000  1
  N  N4  1  0.77331602  0.50000000  0.50000000  1
