# generated using pymatgen
data_MgBeSO2
_symmetry_space_group_name_H-M   'P 1'
_cell_length_a   3.97476045
_cell_length_b   3.97476045
_cell_length_c   3.97476045
_cell_angle_alpha   90.00000000
_cell_angle_beta   90.00000000
_cell_angle_gamma   90.00000000
_symmetry_Int_Tables_number   1
_chemical_formula_structural   MgBeSO2
_chemical_formula_sum   'Mg1 Be1 S1 O2'
_cell_volume   62.79612970
_cell_formula_units_Z   1
loop_
 _symmetry_equiv_pos_site_id
 _symmetry_equiv_pos_as_xyz
  1  'x, y, z'
loop_
 _atom_site_type_symbol
 _atom_site_label
 _atom_site_symmetry_multiplicity
 _atom_site_fract_x
 _atom_site_fract_y
 _atom_site_fract_z
 _atom_site_occupancy
  Be  Be0  1  0.32607727  0.00000000  1.00000000  1
  Mg  Mg1  1  0.54420620  0.50000000  0.50000000  1
  S  S2  1  0.11209979  0.00000000  0.50000000  1
  O  O3  1  0.47616505  0.50000000  0.00000000  1
  O  O4  1  0.02907838  0.50000000  0.50000000  1
