# generated using pymatgen
data_LiWSO2
_symmetry_space_group_name_H-M   'P 1'
_cell_length_a   3.85363697
_cell_length_b   3.85363697
_cell_length_c   3.85363697
_cell_angle_alpha   90.00000000
_cell_angle_beta   90.00000000
_cell_angle_gamma   90.00000000
_symmetry_Int_Tables_number   1
_chemical_formula_structural   LiWSO2
_chemical_formula_sum   'Li1 W1 S1 O2'
_cell_volume   57.22850478
_cell_formula_units_Z   1
loop_
 _symmetry_equiv_pos_site_id
 _symmetry_equiv_pos_as_xyz
  1  'x, y, z'
loop_
 _atom_site_type_symbol
 _atom_site_label
 _atom_site_symmetry_multiplicity
 _atom_site_fract_x
 _atom_site_fract_y
 _atom_site_fract_z
 _atom_site_occupancy
  W  W0  1  0.00068130  0.00000000  0.00000000  1
  Li  Li1  1  0.50690325  0.50000000  0.50000000  1
  S  S2  1  0.49735480  0.00000000  0.50000000  1
  O  O3  1  0.50022518  0.50000000  0.00000000  1
  O  O4  1  0.00509813  0.50000000  0.50000000  1
