# generated using pymatgen
data_TiWN3
_symmetry_space_group_name_H-M   'P 1'
_cell_length_a   3.89224482
_cell_length_b   3.89224482
_cell_length_c   3.89224482
_cell_angle_alpha   90.00000000
_cell_angle_beta   90.00000000
_cell_angle_gamma   90.00000000
_symmetry_Int_Tables_number   1
_chemical_formula_structural   TiWN3
_chemical_formula_sum   'Ti1 W1 N3'
_cell_volume   58.96583423
_cell_formula_units_Z   1
loop_
 _symmetry_equiv_pos_site_id
 _symmetry_equiv_pos_as_xyz
  1  'x, y, z'
loop_
 _atom_site_type_symbol
 _atom_site_label
 _atom_site_symmetry_multiplicity
 _atom_site_fract_x
 _atom_site_fract_y
 _atom_site_fract_z
 _atom_site_occupancy
  W  W0  1  0.21738577  0.00000000  1.00000000  1
  Ti  Ti1  1  0.54406899  0.50000000  0.50000000  1
  N  N2  1  0.42213132  0.00000000  0.50000000  1
  N  N3  1  0.42213132  0.50000000  0.00000000  1
  N  N4  1  0.00931632  0.50000000  0.50000000  1
