# generated using pymatgen
data_TaAgSO2
_symmetry_space_group_name_H-M   'P 1'
_cell_length_a   4.36139931
_cell_length_b   4.36139931
_cell_length_c   4.36139931
_cell_angle_alpha   90.00000000
_cell_angle_beta   90.00000000
_cell_angle_gamma   90.00000000
_symmetry_Int_Tables_number   1
_chemical_formula_structural   TaAgSO2
_chemical_formula_sum   'Ta1 Ag1 S1 O2'
_cell_volume   82.96168273
_cell_formula_units_Z   1
loop_
 _symmetry_equiv_pos_site_id
 _symmetry_equiv_pos_as_xyz
  1  'x, y, z'
loop_
 _atom_site_type_symbol
 _atom_site_label
 _atom_site_symmetry_multiplicity
 _atom_site_fract_x
 _atom_site_fract_y
 _atom_site_fract_z
 _atom_site_occupancy
  Ag  Ag0  1  0.00487499  0.00000000  0.00000000  1
  Ta  Ta1  1  0.57605264  0.50000000  0.50000000  1
  S  S2  1  0.35508267  0.00000000  0.50000000  1
  O  O3  1  0.57050901  0.50000000  0.00000000  1
  O  O4  1  0.99633912  0.50000000  0.50000000  1
