# generated using pymatgen
data_LaCdNO2
_symmetry_space_group_name_H-M   'P 1'
_cell_length_a   4.20201159
_cell_length_b   4.20201159
_cell_length_c   4.20201159
_cell_angle_alpha   90.00000000
_cell_angle_beta   90.00000000
_cell_angle_gamma   90.00000000
_symmetry_Int_Tables_number   1
_chemical_formula_structural   LaCdNO2
_chemical_formula_sum   'La1 Cd1 N1 O2'
_cell_volume   74.19450422
_cell_formula_units_Z   1
loop_
 _symmetry_equiv_pos_site_id
 _symmetry_equiv_pos_as_xyz
  1  'x, y, z'
loop_
 _atom_site_type_symbol
 _atom_site_label
 _atom_site_symmetry_multiplicity
 _atom_site_fract_x
 _atom_site_fract_y
 _atom_site_fract_z
 _atom_site_occupancy
  La  La0  1  0.00214398  0.00000000  0.00000000  1
  Cd  Cd1  1  0.50048337  0.50000000  0.50000000  1
  N  N2  1  0.50085954  0.00000000  0.50000000  1
  O  O3  1  0.50093463  0.50000000  0.00000000  1
  O  O4  1  0.00044226  0.50000000  0.50000000  1
