# generated using pymatgen
data_MgRhNO2
_symmetry_space_group_name_H-M   'P 1'
_cell_length_a   3.97992147
_cell_length_b   3.97992147
_cell_length_c   3.97992147
_cell_angle_alpha   90.00000000
_cell_angle_beta   90.00000000
_cell_angle_gamma   90.00000000
_symmetry_Int_Tables_number   1
_chemical_formula_structural   MgRhNO2
_chemical_formula_sum   'Mg1 Rh1 N1 O2'
_cell_volume   63.04106037
_cell_formula_units_Z   1
loop_
 _symmetry_equiv_pos_site_id
 _symmetry_equiv_pos_as_xyz
  1  'x, y, z'
loop_
 _atom_site_type_symbol
 _atom_site_label
 _atom_site_symmetry_multiplicity
 _atom_site_fract_x
 _atom_site_fract_y
 _atom_site_fract_z
 _atom_site_occupancy
  Mg  Mg0  1  0.20783636  0.00000000  0.00000000  1
  Rh  Rh1  1  0.49712476  0.50000000  0.50000000  1
  N  N2  1  0.45468182  0.00000000  0.50000000  1
  O  O3  1  0.36908794  0.50000000  0.00000000  1
  O  O4  1  0.97802959  0.50000000  0.50000000  1
