# generated using pymatgen
data_SrBeO2F
_symmetry_space_group_name_H-M   'P 1'
_cell_length_a   4.65102343
_cell_length_b   4.65102343
_cell_length_c   4.65102343
_cell_angle_alpha   90.00000000
_cell_angle_beta   90.00000000
_cell_angle_gamma   90.00000000
_symmetry_Int_Tables_number   1
_chemical_formula_structural   SrBeO2F
_chemical_formula_sum   'Sr1 Be1 O2 F1'
_cell_volume   100.61102708
_cell_formula_units_Z   1
loop_
 _symmetry_equiv_pos_site_id
 _symmetry_equiv_pos_as_xyz
  1  'x, y, z'
loop_
 _atom_site_type_symbol
 _atom_site_label
 _atom_site_symmetry_multiplicity
 _atom_site_fract_x
 _atom_site_fract_y
 _atom_site_fract_z
 _atom_site_occupancy
  Be  Be0  1  0.00016044  0.00000000  0.00000000  1
  Sr  Sr1  1  0.50485895  0.50000000  0.50000000  1
  F  F2  1  0.49981233  0.00000000  0.50000000  1
  O  O3  1  0.49989938  0.50000000  0.00000000  1
  O  O4  1  0.00429660  0.50000000  0.50000000  1
