# generated using pymatgen
data_BaTeN2O
_symmetry_space_group_name_H-M   'P 1'
_cell_length_a   4.19480263
_cell_length_b   4.19480263
_cell_length_c   4.19480263
_cell_angle_alpha   90.00000000
_cell_angle_beta   90.00000000
_cell_angle_gamma   90.00000000
_symmetry_Int_Tables_number   1
_chemical_formula_structural   BaTeN2O
_chemical_formula_sum   'Ba1 Te1 N2 O1'
_cell_volume   73.81329537
_cell_formula_units_Z   1
loop_
 _symmetry_equiv_pos_site_id
 _symmetry_equiv_pos_as_xyz
  1  'x, y, z'
loop_
 _atom_site_type_symbol
 _atom_site_label
 _atom_site_symmetry_multiplicity
 _atom_site_fract_x
 _atom_site_fract_y
 _atom_site_fract_z
 _atom_site_occupancy
  Ba  Ba0  1  0.00326770  0.00000000  0.00000000  1
  Te  Te1  1  0.50855504  0.50000000  0.50000000  1
  N  N2  1  0.49996834  0.00000000  0.50000000  1
  N  N3  1  0.49996834  0.50000000  0.00000000  1
  O  O4  1  0.99859398  0.50000000  0.50000000  1
