# generated using pymatgen
data_LiIrSO2
_symmetry_space_group_name_H-M   'P 1'
_cell_length_a   4.28741062
_cell_length_b   4.28741062
_cell_length_c   4.28741062
_cell_angle_alpha   90.00000000
_cell_angle_beta   90.00000000
_cell_angle_gamma   90.00000000
_symmetry_Int_Tables_number   1
_chemical_formula_structural   LiIrSO2
_chemical_formula_sum   'Li1 Ir1 S1 O2'
_cell_volume   78.81070942
_cell_formula_units_Z   1
loop_
 _symmetry_equiv_pos_site_id
 _symmetry_equiv_pos_as_xyz
  1  'x, y, z'
loop_
 _atom_site_type_symbol
 _atom_site_label
 _atom_site_symmetry_multiplicity
 _atom_site_fract_x
 _atom_site_fract_y
 _atom_site_fract_z
 _atom_site_occupancy
  Li  Li0  1  0.21978198  1.00000000  0.00000000  1
  Ir  Ir1  1  0.58668813  0.50000000  0.50000000  1
  S  S2  1  0.38182464  0.00000000  0.50000000  1
  O  O3  1  0.50942968  0.50000000  0.00000000  1
  O  O4  1  0.01799614  0.50000000  0.50000000  1
