# generated using pymatgen
data_SrHgO3
_symmetry_space_group_name_H-M   'P 1'
_cell_length_a   4.73810703
_cell_length_b   4.73810703
_cell_length_c   4.73810703
_cell_angle_alpha   90.00000000
_cell_angle_beta   90.00000000
_cell_angle_gamma   90.00000000
_symmetry_Int_Tables_number   1
_chemical_formula_structural   SrHgO3
_chemical_formula_sum   'Sr1 Hg1 O3'
_cell_volume   106.36888317
_cell_formula_units_Z   1
loop_
 _symmetry_equiv_pos_site_id
 _symmetry_equiv_pos_as_xyz
  1  'x, y, z'
loop_
 _atom_site_type_symbol
 _atom_site_label
 _atom_site_symmetry_multiplicity
 _atom_site_fract_x
 _atom_site_fract_y
 _atom_site_fract_z
 _atom_site_occupancy
  Hg  Hg0  1  0.00017444  0.00000000  0.00000000  1
  Sr  Sr1  1  0.50525871  0.50000000  0.50000000  1
  O  O2  1  0.49981666  0.00000000  0.50000000  1
  O  O3  1  0.49981666  0.50000000  0.00000000  1
  O  O4  1  0.00496579  0.50000000  0.50000000  1
