# generated using pymatgen
data_KNaN3
_symmetry_space_group_name_H-M   'P 1'
_cell_length_a   4.47135770
_cell_length_b   4.47135770
_cell_length_c   4.47135770
_cell_angle_alpha   90.00000000
_cell_angle_beta   90.00000000
_cell_angle_gamma   90.00000000
_symmetry_Int_Tables_number   1
_chemical_formula_structural   KNaN3
_chemical_formula_sum   'K1 Na1 N3'
_cell_volume   89.39603219
_cell_formula_units_Z   1
loop_
 _symmetry_equiv_pos_site_id
 _symmetry_equiv_pos_as_xyz
  1  'x, y, z'
loop_
 _atom_site_type_symbol
 _atom_site_label
 _atom_site_symmetry_multiplicity
 _atom_site_fract_x
 _atom_site_fract_y
 _atom_site_fract_z
 _atom_site_occupancy
  Na  Na0  1  0.18490379  0.00000000  1.00000000  1
  K  K1  1  0.73441540  0.50000000  0.50000000  1
  N  N2  1  0.24142975  0.00000000  0.50000000  1
  N  N3  1  0.24142975  0.50000000  0.00000000  1
  N  N4  1  0.23570737  0.50000000  0.50000000  1
