# generated using pymatgen
data_SnPbNO2
_symmetry_space_group_name_H-M   'P 1'
_cell_length_a   4.38217183
_cell_length_b   4.38217183
_cell_length_c   4.38217183
_cell_angle_alpha   90.00000000
_cell_angle_beta   90.00000000
_cell_angle_gamma   90.00000000
_symmetry_Int_Tables_number   1
_chemical_formula_structural   SnPbNO2
_chemical_formula_sum   'Sn1 Pb1 N1 O2'
_cell_volume   84.15272975
_cell_formula_units_Z   1
loop_
 _symmetry_equiv_pos_site_id
 _symmetry_equiv_pos_as_xyz
  1  'x, y, z'
loop_
 _atom_site_type_symbol
 _atom_site_label
 _atom_site_symmetry_multiplicity
 _atom_site_fract_x
 _atom_site_fract_y
 _atom_site_fract_z
 _atom_site_occupancy
  Sn  Sn0  1  0.20339679  0.00000000  0.00000000  1
  Pb  Pb1  1  0.55196394  0.50000000  0.50000000  1
  N  N2  1  0.39719309  0.00000000  0.50000000  1
  O  O3  1  0.42041718  0.50000000  0.00000000  1
  O  O4  1  0.02583496  0.50000000  0.50000000  1
