# generated using pymatgen
data_CrRhN2O
_symmetry_space_group_name_H-M   'P 1'
_cell_length_a   3.93843279
_cell_length_b   3.93843279
_cell_length_c   3.93843279
_cell_angle_alpha   90.00000000
_cell_angle_beta   90.00000000
_cell_angle_gamma   90.00000000
_symmetry_Int_Tables_number   1
_chemical_formula_structural   CrRhN2O
_chemical_formula_sum   'Cr1 Rh1 N2 O1'
_cell_volume   61.09002676
_cell_formula_units_Z   1
loop_
 _symmetry_equiv_pos_site_id
 _symmetry_equiv_pos_as_xyz
  1  'x, y, z'
loop_
 _atom_site_type_symbol
 _atom_site_label
 _atom_site_symmetry_multiplicity
 _atom_site_fract_x
 _atom_site_fract_y
 _atom_site_fract_z
 _atom_site_occupancy
  Cr  Cr0  1  0.41338591  0.00000000  1.00000000  1
  Rh  Rh1  1  0.27382482  0.50000000  0.50000000  1
  N  N2  1  0.43607859  0.00000000  0.50000000  1
  N  N3  1  0.43607859  0.50000000  0.00000000  1
  O  O4  1  0.79806540  0.50000000  0.50000000  1
