# generated using pymatgen
data_NaPtN3
_symmetry_space_group_name_H-M   'P 1'
_cell_length_a   3.98216885
_cell_length_b   3.98216885
_cell_length_c   3.98216885
_cell_angle_alpha   90.00000000
_cell_angle_beta   90.00000000
_cell_angle_gamma   90.00000000
_symmetry_Int_Tables_number   1
_chemical_formula_structural   NaPtN3
_chemical_formula_sum   'Na1 Pt1 N3'
_cell_volume   63.14791468
_cell_formula_units_Z   1
loop_
 _symmetry_equiv_pos_site_id
 _symmetry_equiv_pos_as_xyz
  1  'x, y, z'
loop_
 _atom_site_type_symbol
 _atom_site_label
 _atom_site_symmetry_multiplicity
 _atom_site_fract_x
 _atom_site_fract_y
 _atom_site_fract_z
 _atom_site_occupancy
  Na  Na0  1  0.03001145  0.00000000  0.00000000  1
  Pt  Pt1  1  0.57422189  0.50000000  0.50000000  1
  N  N2  1  0.43678481  0.00000000  0.50000000  1
  N  N3  1  0.43678481  0.50000000  0.00000000  1
  N  N4  1  0.03407580  0.50000000  0.50000000  1
