# generated using pymatgen
data_ReGeO2F
_symmetry_space_group_name_H-M   'P 1'
_cell_length_a   4.06598092
_cell_length_b   4.06598092
_cell_length_c   4.06598092
_cell_angle_alpha   90.00000000
_cell_angle_beta   90.00000000
_cell_angle_gamma   90.00000000
_symmetry_Int_Tables_number   1
_chemical_formula_structural   ReGeO2F
_chemical_formula_sum   'Re1 Ge1 O2 F1'
_cell_volume   67.21961338
_cell_formula_units_Z   1
loop_
 _symmetry_equiv_pos_site_id
 _symmetry_equiv_pos_as_xyz
  1  'x, y, z'
loop_
 _atom_site_type_symbol
 _atom_site_label
 _atom_site_symmetry_multiplicity
 _atom_site_fract_x
 _atom_site_fract_y
 _atom_site_fract_z
 _atom_site_occupancy
  Re  Re0  1  0.00280139  0.00000000  0.00000000  1
  Ge  Ge1  1  0.50407376  0.50000000  0.50000000  1
  F  F2  1  0.49808094  0.00000000  0.50000000  1
  O  O3  1  0.50071287  0.50000000  0.00000000  1
  O  O4  1  0.00269008  0.50000000  0.50000000  1
