# generated using pymatgen
data_KMnN3
_symmetry_space_group_name_H-M   'P 1'
_cell_length_a   3.86994845
_cell_length_b   3.86994845
_cell_length_c   3.86994845
_cell_angle_alpha   90.00000000
_cell_angle_beta   90.00000000
_cell_angle_gamma   90.00000000
_symmetry_Int_Tables_number   1
_chemical_formula_structural   KMnN3
_chemical_formula_sum   'K1 Mn1 N3'
_cell_volume   57.95828681
_cell_formula_units_Z   1
loop_
 _symmetry_equiv_pos_site_id
 _symmetry_equiv_pos_as_xyz
  1  'x, y, z'
loop_
 _atom_site_type_symbol
 _atom_site_label
 _atom_site_symmetry_multiplicity
 _atom_site_fract_x
 _atom_site_fract_y
 _atom_site_fract_z
 _atom_site_occupancy
  K  K0  1  0.00605108  0.00000000  0.00000000  1
  Mn  Mn1  1  0.55888635  0.50000000  0.50000000  1
  N  N2  1  0.48284663  0.00000000  0.50000000  1
  N  N3  1  0.48284663  0.50000000  0.00000000  1
  N  N4  1  0.98347093  0.50000000  0.50000000  1
