# generated using pymatgen
data_RbScO3
_symmetry_space_group_name_H-M   'P 1'
_cell_length_a   4.25579229
_cell_length_b   4.25579229
_cell_length_c   4.25579229
_cell_angle_alpha   90.00000000
_cell_angle_beta   90.00000000
_cell_angle_gamma   90.00000000
_symmetry_Int_Tables_number   1
_chemical_formula_structural   RbScO3
_chemical_formula_sum   'Rb1 Sc1 O3'
_cell_volume   77.07992252
_cell_formula_units_Z   1
loop_
 _symmetry_equiv_pos_site_id
 _symmetry_equiv_pos_as_xyz
  1  'x, y, z'
loop_
 _atom_site_type_symbol
 _atom_site_label
 _atom_site_symmetry_multiplicity
 _atom_site_fract_x
 _atom_site_fract_y
 _atom_site_fract_z
 _atom_site_occupancy
  Rb  Rb0  1  0.00083614  0.00000000  0.00000000  1
  Sc  Sc1  1  0.50021271  0.50000000  0.50000000  1
  O  O2  1  0.50106078  0.00000000  0.50000000  1
  O  O3  1  0.50106078  0.50000000  0.00000000  1
  O  O4  1  0.00145326  0.50000000  0.50000000  1
