# generated using pymatgen
data_RbAuSO2
_symmetry_space_group_name_H-M   'P 1'
_cell_length_a   5.36833151
_cell_length_b   5.36833151
_cell_length_c   5.36833151
_cell_angle_alpha   90.00000000
_cell_angle_beta   90.00000000
_cell_angle_gamma   90.00000000
_symmetry_Int_Tables_number   1
_chemical_formula_structural   RbAuSO2
_chemical_formula_sum   'Rb1 Au1 S1 O2'
_cell_volume   154.70985600
_cell_formula_units_Z   1
loop_
 _symmetry_equiv_pos_site_id
 _symmetry_equiv_pos_as_xyz
  1  'x, y, z'
loop_
 _atom_site_type_symbol
 _atom_site_label
 _atom_site_symmetry_multiplicity
 _atom_site_fract_x
 _atom_site_fract_y
 _atom_site_fract_z
 _atom_site_occupancy
  Au  Au0  1  0.99998898  0.00000000  0.00000000  1
  Rb  Rb1  1  0.50475245  0.50000000  0.50000000  1
  S  S2  1  0.49913711  0.00000000  0.50000000  1
  O  O3  1  0.50001899  0.50000000  0.00000000  1
  O  O4  1  0.00512285  0.50000000  0.50000000  1
