# generated using pymatgen
data_NbCuNO2
_symmetry_space_group_name_H-M   'P 1'
_cell_length_a   4.12437110
_cell_length_b   4.12437110
_cell_length_c   4.12437110
_cell_angle_alpha   90.00000000
_cell_angle_beta   90.00000000
_cell_angle_gamma   90.00000000
_symmetry_Int_Tables_number   1
_chemical_formula_structural   NbCuNO2
_chemical_formula_sum   'Nb1 Cu1 N1 O2'
_cell_volume   70.15735471
_cell_formula_units_Z   1
loop_
 _symmetry_equiv_pos_site_id
 _symmetry_equiv_pos_as_xyz
  1  'x, y, z'
loop_
 _atom_site_type_symbol
 _atom_site_label
 _atom_site_symmetry_multiplicity
 _atom_site_fract_x
 _atom_site_fract_y
 _atom_site_fract_z
 _atom_site_occupancy
  Cu  Cu0  1  0.47842210  1.00000000  1.00000000  1
  Nb  Nb1  1  0.59049163  0.50000000  0.50000000  1
  N  N2  1  0.50416445  0.00000000  0.50000000  1
  O  O3  1  0.52331032  0.50000000  0.00000000  1
  O  O4  1  0.04503013  0.50000000  0.50000000  1
