# generated using pymatgen
data_ScNiSO2
_symmetry_space_group_name_H-M   'P 1'
_cell_length_a   4.01203844
_cell_length_b   4.01203844
_cell_length_c   4.01203844
_cell_angle_alpha   90.00000000
_cell_angle_beta   90.00000000
_cell_angle_gamma   90.00000000
_symmetry_Int_Tables_number   1
_chemical_formula_structural   ScNiSO2
_chemical_formula_sum   'Sc1 Ni1 S1 O2'
_cell_volume   64.57958597
_cell_formula_units_Z   1
loop_
 _symmetry_equiv_pos_site_id
 _symmetry_equiv_pos_as_xyz
  1  'x, y, z'
loop_
 _atom_site_type_symbol
 _atom_site_label
 _atom_site_symmetry_multiplicity
 _atom_site_fract_x
 _atom_site_fract_y
 _atom_site_fract_z
 _atom_site_occupancy
  Sc  Sc0  1  0.87707897  1.00000000  0.00000000  1
  Ni  Ni1  1  0.59775244  0.50000000  0.50000000  1
  S  S2  1  0.36571909  0.00000000  0.50000000  1
  O  O3  1  0.66586089  0.50000000  0.00000000  1
  O  O4  1  0.07301010  0.50000000  0.50000000  1
