# generated using pymatgen
data_CrCoN3
_symmetry_space_group_name_H-M   'P 1'
_cell_length_a   3.78536534
_cell_length_b   3.78536534
_cell_length_c   3.78536534
_cell_angle_alpha   90.00000000
_cell_angle_beta   90.00000000
_cell_angle_gamma   90.00000000
_symmetry_Int_Tables_number   1
_chemical_formula_structural   CrCoN3
_chemical_formula_sum   'Cr1 Co1 N3'
_cell_volume   54.24046518
_cell_formula_units_Z   1
loop_
 _symmetry_equiv_pos_site_id
 _symmetry_equiv_pos_as_xyz
  1  'x, y, z'
loop_
 _atom_site_type_symbol
 _atom_site_label
 _atom_site_symmetry_multiplicity
 _atom_site_fract_x
 _atom_site_fract_y
 _atom_site_fract_z
 _atom_site_occupancy
  Co  Co0  1  0.39884185  0.00000000  1.00000000  1
  Cr  Cr1  1  0.50959994  0.50000000  0.50000000  1
  N  N2  1  0.38961816  0.00000000  0.50000000  1
  N  N3  1  0.38961816  0.50000000  0.00000000  1
  N  N4  1  0.94008698  0.50000000  0.50000000  1
