# generated using pymatgen
data_KCaN2O
_symmetry_space_group_name_H-M   'P 1'
_cell_length_a   4.52626305
_cell_length_b   4.52626305
_cell_length_c   4.52626305
_cell_angle_alpha   90.00000000
_cell_angle_beta   90.00000000
_cell_angle_gamma   90.00000000
_symmetry_Int_Tables_number   1
_chemical_formula_structural   KCaN2O
_chemical_formula_sum   'K1 Ca1 N2 O1'
_cell_volume   92.72980983
_cell_formula_units_Z   1
loop_
 _symmetry_equiv_pos_site_id
 _symmetry_equiv_pos_as_xyz
  1  'x, y, z'
loop_
 _atom_site_type_symbol
 _atom_site_label
 _atom_site_symmetry_multiplicity
 _atom_site_fract_x
 _atom_site_fract_y
 _atom_site_fract_z
 _atom_site_occupancy
  Ca  Ca0  1  0.20130883  0.00000000  1.00000000  1
  K  K1  1  0.77073755  0.50000000  0.50000000  1
  N  N2  1  0.35368576  0.00000000  0.50000000  1
  N  N3  1  0.35368576  0.50000000  0.00000000  1
  O  O4  1  0.27131912  0.50000000  0.50000000  1
