# generated using pymatgen
data_RbSrNO2
_symmetry_space_group_name_H-M   'P 1'
_cell_length_a   4.84041458
_cell_length_b   4.84041458
_cell_length_c   4.84041458
_cell_angle_alpha   90.00000000
_cell_angle_beta   90.00000000
_cell_angle_gamma   90.00000000
_symmetry_Int_Tables_number   1
_chemical_formula_structural   RbSrNO2
_chemical_formula_sum   'Rb1 Sr1 N1 O2'
_cell_volume   113.40904192
_cell_formula_units_Z   1
loop_
 _symmetry_equiv_pos_site_id
 _symmetry_equiv_pos_as_xyz
  1  'x, y, z'
loop_
 _atom_site_type_symbol
 _atom_site_label
 _atom_site_symmetry_multiplicity
 _atom_site_fract_x
 _atom_site_fract_y
 _atom_site_fract_z
 _atom_site_occupancy
  Rb  Rb0  1  0.00056837  0.00000000  0.00000000  1
  Sr  Sr1  1  0.50463312  0.50000000  0.50000000  1
  N  N2  1  0.49985183  0.00000000  0.50000000  1
  O  O3  1  0.50009167  0.50000000  0.00000000  1
  O  O4  1  0.00540848  0.50000000  0.50000000  1
