# generated using pymatgen
data_FeReNO2
_symmetry_space_group_name_H-M   'P 1'
_cell_length_a   3.70722557
_cell_length_b   3.70722557
_cell_length_c   3.70722557
_cell_angle_alpha   90.00000000
_cell_angle_beta   90.00000000
_cell_angle_gamma   90.00000000
_symmetry_Int_Tables_number   1
_chemical_formula_structural   FeReNO2
_chemical_formula_sum   'Fe1 Re1 N1 O2'
_cell_volume   50.95033388
_cell_formula_units_Z   1
loop_
 _symmetry_equiv_pos_site_id
 _symmetry_equiv_pos_as_xyz
  1  'x, y, z'
loop_
 _atom_site_type_symbol
 _atom_site_label
 _atom_site_symmetry_multiplicity
 _atom_site_fract_x
 _atom_site_fract_y
 _atom_site_fract_z
 _atom_site_occupancy
  Re  Re0  1  0.00311891  0.00000000  0.00000000  1
  Fe  Fe1  1  0.50258522  0.50000000  0.50000000  1
  N  N2  1  0.50107330  0.00000000  0.50000000  1
  O  O3  1  0.50085985  0.50000000  0.00000000  1
  O  O4  1  0.00222801  0.50000000  0.50000000  1
