# generated using pymatgen
data_CsInO3
_symmetry_space_group_name_H-M   'P 1'
_cell_length_a   4.57508472
_cell_length_b   4.57508472
_cell_length_c   4.57508472
_cell_angle_alpha   90.00000000
_cell_angle_beta   90.00000000
_cell_angle_gamma   90.00000000
_symmetry_Int_Tables_number   1
_chemical_formula_structural   CsInO3
_chemical_formula_sum   'Cs1 In1 O3'
_cell_volume   95.76292894
_cell_formula_units_Z   1
loop_
 _symmetry_equiv_pos_site_id
 _symmetry_equiv_pos_as_xyz
  1  'x, y, z'
loop_
 _atom_site_type_symbol
 _atom_site_label
 _atom_site_symmetry_multiplicity
 _atom_site_fract_x
 _atom_site_fract_y
 _atom_site_fract_z
 _atom_site_occupancy
  In  In0  1  0.99790753  0.00000000  0.00000000  1
  Cs  Cs1  1  0.50847087  0.50000000  0.50000000  1
  O  O2  1  0.51014292  0.00000000  0.50000000  1
  O  O3  1  0.51014292  0.50000000  0.00000000  1
  O  O4  1  0.00848835  0.50000000  0.50000000  1
