# generated using pymatgen
data_TaIrNO2
_symmetry_space_group_name_H-M   'P 1'
_cell_length_a   4.02474642
_cell_length_b   4.02474642
_cell_length_c   4.02474642
_cell_angle_alpha   90.00000000
_cell_angle_beta   90.00000000
_cell_angle_gamma   90.00000000
_symmetry_Int_Tables_number   1
_chemical_formula_structural   TaIrNO2
_chemical_formula_sum   'Ta1 Ir1 N1 O2'
_cell_volume   65.19519172
_cell_formula_units_Z   1
loop_
 _symmetry_equiv_pos_site_id
 _symmetry_equiv_pos_as_xyz
  1  'x, y, z'
loop_
 _atom_site_type_symbol
 _atom_site_label
 _atom_site_symmetry_multiplicity
 _atom_site_fract_x
 _atom_site_fract_y
 _atom_site_fract_z
 _atom_site_occupancy
  Ir  Ir0  1  0.25403522  1.00000000  0.00000000  1
  Ta  Ta1  1  0.39308227  0.50000000  0.50000000  1
  N  N2  1  0.26018859  0.00000000  0.50000000  1
  O  O3  1  0.34596600  0.50000000  0.00000000  1
  O  O4  1  0.85384941  0.50000000  0.50000000  1
