# generated using pymatgen
data_ZnCrO2F
_symmetry_space_group_name_H-M   'P 1'
_cell_length_a   3.88198820
_cell_length_b   3.88198820
_cell_length_c   3.88198820
_cell_angle_alpha   90.00000000
_cell_angle_beta   90.00000000
_cell_angle_gamma   90.00000000
_symmetry_Int_Tables_number   1
_chemical_formula_structural   ZnCrO2F
_chemical_formula_sum   'Zn1 Cr1 O2 F1'
_cell_volume   58.50091139
_cell_formula_units_Z   1
loop_
 _symmetry_equiv_pos_site_id
 _symmetry_equiv_pos_as_xyz
  1  'x, y, z'
loop_
 _atom_site_type_symbol
 _atom_site_label
 _atom_site_symmetry_multiplicity
 _atom_site_fract_x
 _atom_site_fract_y
 _atom_site_fract_z
 _atom_site_occupancy
  Zn  Zn0  1  0.00151917  0.00000000  0.00000000  1
  Cr  Cr1  1  0.50344513  0.50000000  0.50000000  1
  F  F2  1  0.50033201  0.00000000  0.50000000  1
  O  O3  1  0.50047918  0.50000000  0.00000000  1
  O  O4  1  0.00269838  0.50000000  0.50000000  1
