# generated using pymatgen
data_SrCdSO2
_symmetry_space_group_name_H-M   'P 1'
_cell_length_a   4.86796302
_cell_length_b   4.86796302
_cell_length_c   4.86796302
_cell_angle_alpha   90.00000000
_cell_angle_beta   90.00000000
_cell_angle_gamma   90.00000000
_symmetry_Int_Tables_number   1
_chemical_formula_structural   SrCdSO2
_chemical_formula_sum   'Sr1 Cd1 S1 O2'
_cell_volume   115.35643092
_cell_formula_units_Z   1
loop_
 _symmetry_equiv_pos_site_id
 _symmetry_equiv_pos_as_xyz
  1  'x, y, z'
loop_
 _atom_site_type_symbol
 _atom_site_label
 _atom_site_symmetry_multiplicity
 _atom_site_fract_x
 _atom_site_fract_y
 _atom_site_fract_z
 _atom_site_occupancy
  Cd  Cd0  1  0.92753003  0.00000000  1.00000000  1
  Sr  Sr1  1  0.64186727  0.50000000  0.50000000  1
  S  S2  1  0.10444807  0.00000000  0.50000000  1
  O  O3  1  0.74207202  0.50000000  0.00000000  1
  O  O4  1  0.14003377  0.50000000  0.50000000  1
