# generated using pymatgen
data_InPbSO2
_symmetry_space_group_name_H-M   'P 1'
_cell_length_a   4.62154718
_cell_length_b   4.62154718
_cell_length_c   4.62154718
_cell_angle_alpha   90.00000000
_cell_angle_beta   90.00000000
_cell_angle_gamma   90.00000000
_symmetry_Int_Tables_number   1
_chemical_formula_structural   InPbSO2
_chemical_formula_sum   'In1 Pb1 S1 O2'
_cell_volume   98.71023224
_cell_formula_units_Z   1
loop_
 _symmetry_equiv_pos_site_id
 _symmetry_equiv_pos_as_xyz
  1  'x, y, z'
loop_
 _atom_site_type_symbol
 _atom_site_label
 _atom_site_symmetry_multiplicity
 _atom_site_fract_x
 _atom_site_fract_y
 _atom_site_fract_z
 _atom_site_occupancy
  Pb  Pb0  1  0.05943944  0.00000000  0.00000000  1
  In  In1  1  0.58710586  0.50000000  0.50000000  1
  S  S2  1  0.40257993  0.00000000  0.50000000  1
  O  O3  1  0.52706752  0.50000000  0.00000000  1
  O  O4  1  0.04417562  0.50000000  0.50000000  1
