# generated using pymatgen
data_BPtNO2
_symmetry_space_group_name_H-M   'P 1'
_cell_length_a   3.92020054
_cell_length_b   3.92020054
_cell_length_c   3.92020054
_cell_angle_alpha   90.00000000
_cell_angle_beta   90.00000000
_cell_angle_gamma   90.00000000
_symmetry_Int_Tables_number   1
_chemical_formula_structural   BPtNO2
_chemical_formula_sum   'B1 Pt1 N1 O2'
_cell_volume   60.24553343
_cell_formula_units_Z   1
loop_
 _symmetry_equiv_pos_site_id
 _symmetry_equiv_pos_as_xyz
  1  'x, y, z'
loop_
 _atom_site_type_symbol
 _atom_site_label
 _atom_site_symmetry_multiplicity
 _atom_site_fract_x
 _atom_site_fract_y
 _atom_site_fract_z
 _atom_site_occupancy
  B  B0  1  0.24349563  0.00000000  0.00000000  1
  Pt  Pt1  1  0.44011990  0.50000000  0.50000000  1
  N  N2  1  0.30136951  0.00000000  0.50000000  1
  O  O3  1  0.33404658  0.50000000  0.00000000  1
  O  O4  1  0.91715262  0.50000000  0.50000000  1
