# generated using pymatgen
data_Mg2N3
_symmetry_space_group_name_H-M   'P 1'
_cell_length_a   3.99846433
_cell_length_b   3.99846433
_cell_length_c   3.99846433
_cell_angle_alpha   90.00000000
_cell_angle_beta   90.00000000
_cell_angle_gamma   90.00000000
_symmetry_Int_Tables_number   1
_chemical_formula_structural   Mg2N3
_chemical_formula_sum   'Mg2 N3'
_cell_volume   63.92631605
_cell_formula_units_Z   1
loop_
 _symmetry_equiv_pos_site_id
 _symmetry_equiv_pos_as_xyz
  1  'x, y, z'
loop_
 _atom_site_type_symbol
 _atom_site_label
 _atom_site_symmetry_multiplicity
 _atom_site_fract_x
 _atom_site_fract_y
 _atom_site_fract_z
 _atom_site_occupancy
  Mg  Mg0  1  0.00029306  0.00000000  0.00000000  1
  Mg  Mg1  1  0.50498147  0.50000000  0.50000000  1
  N  N2  1  0.49992414  0.00000000  0.50000000  1
  N  N3  1  0.49992414  0.50000000  0.00000000  1
  N  N4  1  0.00469910  0.50000000  0.50000000  1
