# generated using pymatgen
data_CrOsNOF
_symmetry_space_group_name_H-M   'P 1'
_cell_length_a   4.02620538
_cell_length_b   4.02620538
_cell_length_c   4.02620538
_cell_angle_alpha   90.00000000
_cell_angle_beta   90.00000000
_cell_angle_gamma   90.00000000
_symmetry_Int_Tables_number   1
_chemical_formula_structural   CrOsNOF
_chemical_formula_sum   'Cr1 Os1 N1 O1 F1'
_cell_volume   65.26611691
_cell_formula_units_Z   1
loop_
 _symmetry_equiv_pos_site_id
 _symmetry_equiv_pos_as_xyz
  1  'x, y, z'
loop_
 _atom_site_type_symbol
 _atom_site_label
 _atom_site_symmetry_multiplicity
 _atom_site_fract_x
 _atom_site_fract_y
 _atom_site_fract_z
 _atom_site_occupancy
  Cr  Cr0  1  0.86444835  0.00000000  0.00000000  1
  Os  Os1  1  0.56922608  0.50000000  0.50000000  1
  F  F2  1  0.44890346  0.00000000  0.50000000  1
  N  N3  1  0.60968939  0.50000000  0.00000000  1
  O  O4  1  0.07845130  0.50000000  0.50000000  1
