# generated using pymatgen
data_ScRhNO2
_symmetry_space_group_name_H-M   'P 1'
_cell_length_a   3.88834773
_cell_length_b   3.88834773
_cell_length_c   3.88834773
_cell_angle_alpha   90.00000000
_cell_angle_beta   90.00000000
_cell_angle_gamma   90.00000000
_symmetry_Int_Tables_number   1
_chemical_formula_structural   ScRhNO2
_chemical_formula_sum   'Sc1 Rh1 N1 O2'
_cell_volume   58.78889402
_cell_formula_units_Z   1
loop_
 _symmetry_equiv_pos_site_id
 _symmetry_equiv_pos_as_xyz
  1  'x, y, z'
loop_
 _atom_site_type_symbol
 _atom_site_label
 _atom_site_symmetry_multiplicity
 _atom_site_fract_x
 _atom_site_fract_y
 _atom_site_fract_z
 _atom_site_occupancy
  Sc  Sc0  1  0.99977882  1.00000000  1.00000000  1
  Rh  Rh1  1  0.50471269  0.50000000  0.50000000  1
  N  N2  1  0.66162715  0.00000000  0.50000000  1
  O  O3  1  0.37872367  0.50000000  0.00000000  1
  O  O4  1  0.01314364  0.50000000  0.50000000  1
