# generated using pymatgen
data_InCoO2F
_symmetry_space_group_name_H-M   'P 1'
_cell_length_a   4.23043746
_cell_length_b   4.23043746
_cell_length_c   4.23043746
_cell_angle_alpha   90.00000000
_cell_angle_beta   90.00000000
_cell_angle_gamma   90.00000000
_symmetry_Int_Tables_number   1
_chemical_formula_structural   InCoO2F
_chemical_formula_sum   'In1 Co1 O2 F1'
_cell_volume   75.71045170
_cell_formula_units_Z   1
loop_
 _symmetry_equiv_pos_site_id
 _symmetry_equiv_pos_as_xyz
  1  'x, y, z'
loop_
 _atom_site_type_symbol
 _atom_site_label
 _atom_site_symmetry_multiplicity
 _atom_site_fract_x
 _atom_site_fract_y
 _atom_site_fract_z
 _atom_site_occupancy
  Co  Co0  1  0.00183406  0.00000000  0.00000000  1
  In  In1  1  0.49943890  0.50000000  0.50000000  1
  F  F2  1  0.50011386  0.00000000  0.50000000  1
  O  O3  1  0.50068558  0.50000000  0.00000000  1
  O  O4  1  0.00008747  0.50000000  0.50000000  1
