# generated using pymatgen
data_VMoO3
_symmetry_space_group_name_H-M   'P 1'
_cell_length_a   3.84653680
_cell_length_b   3.84653680
_cell_length_c   3.84653680
_cell_angle_alpha   90.00000000
_cell_angle_beta   90.00000000
_cell_angle_gamma   90.00000000
_symmetry_Int_Tables_number   1
_chemical_formula_structural   VMoO3
_chemical_formula_sum   'V1 Mo1 O3'
_cell_volume   56.91276348
_cell_formula_units_Z   1
loop_
 _symmetry_equiv_pos_site_id
 _symmetry_equiv_pos_as_xyz
  1  'x, y, z'
loop_
 _atom_site_type_symbol
 _atom_site_label
 _atom_site_symmetry_multiplicity
 _atom_site_fract_x
 _atom_site_fract_y
 _atom_site_fract_z
 _atom_site_occupancy
  Mo  Mo0  1  0.00139948  0.00000000  0.00000000  1
  V  V1  1  0.50184282  0.50000000  0.50000000  1
  O  O2  1  0.50250574  0.00000000  0.50000000  1
  O  O3  1  0.50250574  0.50000000  0.00000000  1
  O  O4  1  0.00262647  0.50000000  0.50000000  1
