# generated using pymatgen
data_GaNi3Sb
_symmetry_space_group_name_H-M   'P 1'
_cell_length_a   4.12872301
_cell_length_b   4.12872301
_cell_length_c   4.96412300
_cell_angle_alpha   90.00000000
_cell_angle_beta   90.00000000
_cell_angle_gamma   119.99222832
_symmetry_Int_Tables_number   1
_chemical_formula_structural   GaNi3Sb
_chemical_formula_sum   'Ga1 Ni3 Sb1'
_cell_volume   73.28897822
_cell_formula_units_Z   1
loop_
 _symmetry_equiv_pos_site_id
 _symmetry_equiv_pos_as_xyz
  1  'x, y, z'
loop_
 _atom_site_type_symbol
 _atom_site_label
 _atom_site_symmetry_multiplicity
 _atom_site_fract_x
 _atom_site_fract_y
 _atom_site_fract_z
 _atom_site_occupancy
  Ga  Ga0  1  0.66669000  0.33331000  0.75000000  1
  Ni  Ni1  1  0.00000500  0.99999500  0.50437600  1
  Ni  Ni2  1  0.00000500  0.99999500  0.99562400  1
  Ni  Ni3  1  0.66667700  0.33332300  0.25000000  1
  Sb  Sb4  1  0.33332400  0.66667600  0.25000000  1
