# generated using pymatgen
data_BaHfS3
_symmetry_space_group_name_H-M   'P 1'
_cell_length_a   5.01166389
_cell_length_b   5.01166389
_cell_length_c   5.01166426
_cell_angle_alpha   89.98687819
_cell_angle_beta   89.98687819
_cell_angle_gamma   89.98688777
_symmetry_Int_Tables_number   1
_chemical_formula_structural   BaHfS3
_chemical_formula_sum   'Ba1 Hf1 S3'
_cell_volume   125.87683361
_cell_formula_units_Z   1
loop_
 _symmetry_equiv_pos_site_id
 _symmetry_equiv_pos_as_xyz
  1  'x, y, z'
loop_
 _atom_site_type_symbol
 _atom_site_label
 _atom_site_symmetry_multiplicity
 _atom_site_fract_x
 _atom_site_fract_y
 _atom_site_fract_z
 _atom_site_occupancy
  Ba  Ba0  1  0.00862800  0.00862800  0.00862800  1
  Hf  Hf1  1  0.51047600  0.51047600  0.51047600  1
  S  S2  1  0.01141700  0.51314300  0.51314300  1
  S  S3  1  0.51314300  0.51314300  0.01141700  1
  S  S4  1  0.51314300  0.01141700  0.51314300  1
