# generated using pymatgen
data_BaGe3Rh
_symmetry_space_group_name_H-M   'P 1'
_cell_length_a   6.07321281
_cell_length_b   6.07321281
_cell_length_c   6.07321281
_cell_angle_alpha   135.99540269
_cell_angle_beta   135.99540269
_cell_angle_gamma   63.98744281
_symmetry_Int_Tables_number   1
_chemical_formula_structural   BaGe3Rh
_chemical_formula_sum   'Ba1 Ge3 Rh1'
_cell_volume   106.66029636
_cell_formula_units_Z   1
loop_
 _symmetry_equiv_pos_site_id
 _symmetry_equiv_pos_as_xyz
  1  'x, y, z'
loop_
 _atom_site_type_symbol
 _atom_site_label
 _atom_site_symmetry_multiplicity
 _atom_site_fract_x
 _atom_site_fract_y
 _atom_site_fract_z
 _atom_site_occupancy
  Ba  Ba0  1  0.59117671  0.59117671  -0.00000000  1
  Ge  Ge1  1  0.99823537  0.99823537  -0.00000000  1
  Ge  Ge2  1  0.34305625  0.84305625  0.50000000  1
  Ge  Ge3  1  0.84305625  0.34305625  0.50000000  1
  Rh  Rh4  1  0.24177442  0.24177442  0.00000000  1
