# generated using pymatgen
data_SmBiTe3
_symmetry_space_group_name_H-M   'P 1'
_cell_length_a   10.98769055
_cell_length_b   10.98769055
_cell_length_c   10.98769005
_cell_angle_alpha   23.32620416
_cell_angle_beta   23.32620416
_cell_angle_gamma   23.32620596
_symmetry_Int_Tables_number   1
_chemical_formula_structural   SmBiTe3
_chemical_formula_sum   'Sm1 Bi1 Te3'
_cell_volume   182.60768130
_cell_formula_units_Z   1
loop_
 _symmetry_equiv_pos_site_id
 _symmetry_equiv_pos_as_xyz
  1  'x, y, z'
loop_
 _atom_site_type_symbol
 _atom_site_label
 _atom_site_symmetry_multiplicity
 _atom_site_fract_x
 _atom_site_fract_y
 _atom_site_fract_z
 _atom_site_occupancy
  Sm  Sm0  1  0.60251130  0.60251130  0.60251130  1
  Bi  Bi1  1  0.39818355  0.39818355  0.39818355  1
  Te  Te2  1  0.99800352  0.99800352  0.99800352  1
  Te  Te3  1  0.78335395  0.78335395  0.78335395  1
  Te  Te4  1  0.21794767  0.21794767  0.21794767  1
