# generated using pymatgen
data_NClO3
_symmetry_space_group_name_H-M   'P 1'
_cell_length_a   5.03439564
_cell_length_b   5.03439564
_cell_length_c   3.99731630
_cell_angle_alpha   81.68647511
_cell_angle_beta   81.68647511
_cell_angle_gamma   108.20341218
_symmetry_Int_Tables_number   1
_chemical_formula_structural   NClO3
_chemical_formula_sum   'N1 Cl1 O3'
_cell_volume   93.27013631
_cell_formula_units_Z   1
loop_
 _symmetry_equiv_pos_site_id
 _symmetry_equiv_pos_as_xyz
  1  'x, y, z'
loop_
 _atom_site_type_symbol
 _atom_site_label
 _atom_site_symmetry_multiplicity
 _atom_site_fract_x
 _atom_site_fract_y
 _atom_site_fract_z
 _atom_site_occupancy
  N  N0  1  0.55088700  0.55088700  0.48383800  1
  Cl  Cl1  1  0.08565200  0.08565200  0.78756400  1
  O  O2  1  0.35375000  0.35375000  0.85479100  1
  O  O3  1  0.47376400  0.74594800  0.38440400  1
  O  O4  1  0.74594800  0.47376400  0.38440400  1
