# generated using pymatgen
data_EuSi3Rh
_symmetry_space_group_name_H-M   'P 1'
_cell_length_a   5.77006240
_cell_length_b   5.77006240
_cell_length_c   5.77006240
_cell_angle_alpha   137.19891270
_cell_angle_beta   137.19891270
_cell_angle_gamma   62.13214338
_symmetry_Int_Tables_number   1
_chemical_formula_structural   EuSi3Rh
_chemical_formula_sum   'Eu1 Si3 Rh1'
_cell_volume   87.63534432
_cell_formula_units_Z   1
loop_
 _symmetry_equiv_pos_site_id
 _symmetry_equiv_pos_as_xyz
  1  'x, y, z'
loop_
 _atom_site_type_symbol
 _atom_site_label
 _atom_site_symmetry_multiplicity
 _atom_site_fract_x
 _atom_site_fract_y
 _atom_site_fract_z
 _atom_site_occupancy
  Eu  Eu0  1  0.00259522  0.00259522  0.00000000  1
  Si  Si1  1  0.41406473  0.41406473  -0.00000000  1
  Si  Si2  1  0.26334815  0.76334815  0.50000000  1
  Si  Si3  1  0.76334815  0.26334815  0.50000000  1
  Rh  Rh4  1  0.65464475  0.65464475  0.00000000  1
