# generated using pymatgen
data_K3ClO
_symmetry_space_group_name_H-M   'P 1'
_cell_length_a   5.13676547
_cell_length_b   5.14668801
_cell_length_c   5.14394718
_cell_angle_alpha   89.54404141
_cell_angle_beta   90.00000000
_cell_angle_gamma   90.00000000
_symmetry_Int_Tables_number   1
_chemical_formula_structural   K3ClO
_chemical_formula_sum   'K3 Cl1 O1'
_cell_volume   135.98791906
_cell_formula_units_Z   1
loop_
 _symmetry_equiv_pos_site_id
 _symmetry_equiv_pos_as_xyz
  1  'x, y, z'
loop_
 _atom_site_type_symbol
 _atom_site_label
 _atom_site_symmetry_multiplicity
 _atom_site_fract_x
 _atom_site_fract_y
 _atom_site_fract_z
 _atom_site_occupancy
  K  K0  1  -0.00000000  0.49977857  0.04090824  1
  K  K1  1  0.50000000  0.03099659  0.00297589  1
  K  K2  1  -0.00000000  0.97094368  0.51601000  1
  Cl  Cl3  1  0.50000000  0.49838980  0.49837712  1
  O  O4  1  -0.00000000  -0.00010864  0.01403075  1
