# generated using pymatgen
data_TlCdF3
_symmetry_space_group_name_H-M   'P 1'
_cell_length_a   4.41837552
_cell_length_b   4.41837552
_cell_length_c   4.41934928
_cell_angle_alpha   89.95704768
_cell_angle_beta   89.95704768
_cell_angle_gamma   90.03408074
_symmetry_Int_Tables_number   1
_chemical_formula_structural   TlCdF3
_chemical_formula_sum   'Tl1 Cd1 F3'
_cell_volume   86.27465928
_cell_formula_units_Z   1
loop_
 _symmetry_equiv_pos_site_id
 _symmetry_equiv_pos_as_xyz
  1  'x, y, z'
loop_
 _atom_site_type_symbol
 _atom_site_label
 _atom_site_symmetry_multiplicity
 _atom_site_fract_x
 _atom_site_fract_y
 _atom_site_fract_z
 _atom_site_occupancy
  Tl  Tl0  1  0.99302112  0.99302112  0.01517500  1
  Cd  Cd1  1  0.49900425  0.49900425  0.50480616  1
  F  F2  1  0.99960429  0.50531850  0.50034436  1
  F  F3  1  0.50531850  0.99960429  0.50034436  1
  F  F4  1  0.50015084  0.50015084  0.00391612  1
