# generated using pymatgen
data_TbSi3Rh
_symmetry_space_group_name_H-M   'P 1'
_cell_length_a   5.69566467
_cell_length_b   5.69566467
_cell_length_c   5.69566467
_cell_angle_alpha   137.17688728
_cell_angle_beta   137.17688728
_cell_angle_gamma   62.16600216
_symmetry_Int_Tables_number   1
_chemical_formula_structural   TbSi3Rh
_chemical_formula_sum   'Tb1 Si3 Rh1'
_cell_volume   84.35669302
_cell_formula_units_Z   1
loop_
 _symmetry_equiv_pos_site_id
 _symmetry_equiv_pos_as_xyz
  1  'x, y, z'
loop_
 _atom_site_type_symbol
 _atom_site_label
 _atom_site_symmetry_multiplicity
 _atom_site_fract_x
 _atom_site_fract_y
 _atom_site_fract_z
 _atom_site_occupancy
  Tb  Tb0  1  0.99841083  0.99841083  -0.00000000  1
  Si  Si1  1  0.41462992  0.41462992  0.00000000  1
  Si  Si2  1  0.26419725  0.76419725  0.50000000  1
  Si  Si3  1  0.76419725  0.26419725  0.50000000  1
  Rh  Rh4  1  0.65256374  0.65256374  0.00000000  1
