# generated using pymatgen
data_TlNiO3
_symmetry_space_group_name_H-M   'P 1'
_cell_length_a   3.78623437
_cell_length_b   3.78541735
_cell_length_c   3.79803137
_cell_angle_alpha   89.81183948
_cell_angle_beta   89.80722819
_cell_angle_gamma   90.22609065
_symmetry_Int_Tables_number   1
_chemical_formula_structural   TlNiO3
_chemical_formula_sum   'Tl1 Ni1 O3'
_cell_volume   54.43417050
_cell_formula_units_Z   1
loop_
 _symmetry_equiv_pos_site_id
 _symmetry_equiv_pos_as_xyz
  1  'x, y, z'
loop_
 _atom_site_type_symbol
 _atom_site_label
 _atom_site_symmetry_multiplicity
 _atom_site_fract_x
 _atom_site_fract_y
 _atom_site_fract_z
 _atom_site_occupancy
  Tl  Tl0  1  0.98782800  0.99066600  0.99972000  1
  Ni  Ni1  1  0.50439500  0.50654100  0.50946400  1
  O  O2  1  0.50076900  0.50391500  0.01071200  1
  O  O3  1  0.52986200  0.00911200  0.51087000  1
  O  O4  1  0.00714700  0.52976200  0.51922800  1
