# generated using pymatgen
data_CsTlCl3
_symmetry_space_group_name_H-M   'P 1'
_cell_length_a   5.57983001
_cell_length_b   5.57995045
_cell_length_c   5.58008013
_cell_angle_alpha   89.99304754
_cell_angle_beta   89.99737197
_cell_angle_gamma   89.98461833
_symmetry_Int_Tables_number   1
_chemical_formula_structural   CsTlCl3
_chemical_formula_sum   'Cs1 Tl1 Cl3'
_cell_volume   173.73676361
_cell_formula_units_Z   1
loop_
 _symmetry_equiv_pos_site_id
 _symmetry_equiv_pos_as_xyz
  1  'x, y, z'
loop_
 _atom_site_type_symbol
 _atom_site_label
 _atom_site_symmetry_multiplicity
 _atom_site_fract_x
 _atom_site_fract_y
 _atom_site_fract_z
 _atom_site_occupancy
  Cs  Cs0  1  0.00104300  0.00550000  0.00188800  1
  Tl  Tl1  1  0.50029300  0.51334000  0.50290800  1
  Cl  Cl2  1  0.00002700  0.51506400  0.50549100  1
  Cl  Cl3  1  0.49686700  0.01361900  0.49723000  1
  Cl  Cl4  1  0.50177300  0.51247500  0.00248300  1
