# generated using pymatgen
data_MnInF3
_symmetry_space_group_name_H-M   'P 1'
_cell_length_a   4.30631943
_cell_length_b   4.30631943
_cell_length_c   4.30631997
_cell_angle_alpha   90.03869180
_cell_angle_beta   90.03869180
_cell_angle_gamma   90.03870488
_symmetry_Int_Tables_number   1
_chemical_formula_structural   MnInF3
_chemical_formula_sum   'Mn1 In1 F3'
_cell_volume   79.85800961
_cell_formula_units_Z   1
loop_
 _symmetry_equiv_pos_site_id
 _symmetry_equiv_pos_as_xyz
  1  'x, y, z'
loop_
 _atom_site_type_symbol
 _atom_site_label
 _atom_site_symmetry_multiplicity
 _atom_site_fract_x
 _atom_site_fract_y
 _atom_site_fract_z
 _atom_site_occupancy
  Mn  Mn0  1  0.51175100  0.51175100  0.51175100  1
  In  In1  1  0.00728000  0.00728000  0.00728000  1
  F  F2  1  0.01252000  0.51683300  0.51683300  1
  F  F3  1  0.51683300  0.51683300  0.01252000  1
  F  F4  1  0.51683300  0.01252000  0.51683300  1
