# generated using pymatgen
data_CuGeI3
_symmetry_space_group_name_H-M   'P 1'
_cell_length_a   6.32561474
_cell_length_b   6.32561474
_cell_length_c   4.33309673
_cell_angle_alpha   87.31819853
_cell_angle_beta   87.31819853
_cell_angle_gamma   102.59197214
_symmetry_Int_Tables_number   1
_chemical_formula_structural   CuGeI3
_chemical_formula_sum   'Cu1 Ge1 I3'
_cell_volume   168.73725911
_cell_formula_units_Z   1
loop_
 _symmetry_equiv_pos_site_id
 _symmetry_equiv_pos_as_xyz
  1  'x, y, z'
loop_
 _atom_site_type_symbol
 _atom_site_label
 _atom_site_symmetry_multiplicity
 _atom_site_fract_x
 _atom_site_fract_y
 _atom_site_fract_z
 _atom_site_occupancy
  Cu  Cu0  1  0.96144900  0.96144900  0.46124100  1
  Ge  Ge1  1  0.39106700  0.39106700  0.89823300  1
  I  I2  1  0.62781600  0.62781600  0.37635900  1
  I  I3  1  0.83701000  0.20665800  0.88808300  1
  I  I4  1  0.20665800  0.83701000  0.88808300  1
