# generated using pymatgen
data_CaCoO3
_symmetry_space_group_name_H-M   'P 1'
_cell_length_a   3.17692635
_cell_length_b   3.17692635
_cell_length_c   9.79563196
_cell_angle_alpha   84.06621218
_cell_angle_beta   84.06621218
_cell_angle_gamma   89.95623290
_symmetry_Int_Tables_number   1
_chemical_formula_structural   CaCoO3
_chemical_formula_sum   'Ca1 Co1 O3'
_cell_volume   97.80442736
_cell_formula_units_Z   1
loop_
 _symmetry_equiv_pos_site_id
 _symmetry_equiv_pos_as_xyz
  1  'x, y, z'
loop_
 _atom_site_type_symbol
 _atom_site_label
 _atom_site_symmetry_multiplicity
 _atom_site_fract_x
 _atom_site_fract_y
 _atom_site_fract_z
 _atom_site_occupancy
  Ca  Ca0  1  0.30835400  0.30835400  0.27809700  1
  Co  Co1  1  0.73723600  0.73723600  0.51339900  1
  O  O2  1  0.80052600  0.80052600  0.30298000  1
  O  O3  1  0.68064000  0.68064000  0.67912800  1
  O  O4  1  0.23375100  0.23375100  0.50069900  1
