# generated using pymatgen
data_TaOF3
_symmetry_space_group_name_H-M   'P 1'
_cell_length_a   5.20456112
_cell_length_b   5.20456112
_cell_length_c   5.20456112
_cell_angle_alpha   136.31064824
_cell_angle_beta   133.54731251
_cell_angle_gamma   65.66639405
_symmetry_Int_Tables_number   1
_chemical_formula_structural   TaOF3
_chemical_formula_sum   'Ta1 O1 F3'
_cell_volume   69.52963686
_cell_formula_units_Z   1
loop_
 _symmetry_equiv_pos_site_id
 _symmetry_equiv_pos_as_xyz
  1  'x, y, z'
loop_
 _atom_site_type_symbol
 _atom_site_label
 _atom_site_symmetry_multiplicity
 _atom_site_fract_x
 _atom_site_fract_y
 _atom_site_fract_z
 _atom_site_occupancy
  Ta  Ta0  1  0.00000000  0.00000000  0.00000000  1
  O  O1  1  0.00000000  0.50000000  0.50000000  1
  F  F2  1  0.78233800  0.78233800  0.00000000  1
  F  F3  1  0.50000000  0.00000000  0.50000000  1
  F  F4  1  0.21766200  0.21766200  0.00000000  1
