# generated using pymatgen
data_CrWO3
_symmetry_space_group_name_H-M   'P 1'
_cell_length_a   4.84608559
_cell_length_b   4.84608559
_cell_length_c   4.84608525
_cell_angle_alpha   86.69283229
_cell_angle_beta   86.69283229
_cell_angle_gamma   86.69284859
_symmetry_Int_Tables_number   1
_chemical_formula_structural   CrWO3
_chemical_formula_sum   'Cr1 W1 O3'
_cell_volume   113.26051194
_cell_formula_units_Z   1
loop_
 _symmetry_equiv_pos_site_id
 _symmetry_equiv_pos_as_xyz
  1  'x, y, z'
loop_
 _atom_site_type_symbol
 _atom_site_label
 _atom_site_symmetry_multiplicity
 _atom_site_fract_x
 _atom_site_fract_y
 _atom_site_fract_z
 _atom_site_occupancy
  Cr  Cr0  1  0.65228900  0.65228900  0.65228900  1
  W  W1  1  0.34541800  0.34541800  0.34541800  1
  O  O2  1  0.02090100  0.47110100  0.51029100  1
  O  O3  1  0.47110100  0.51029100  0.02090100  1
  O  O4  1  0.51029100  0.02090100  0.47110100  1
