# generated using pymatgen
data_InBiSe3
_symmetry_space_group_name_H-M   'P 1'
_cell_length_a   10.25690755
_cell_length_b   10.25690755
_cell_length_c   10.25690705
_cell_angle_alpha   23.17547089
_cell_angle_beta   23.17547089
_cell_angle_gamma   23.17547222
_symmetry_Int_Tables_number   1
_chemical_formula_structural   InBiSe3
_chemical_formula_sum   'In1 Bi1 Se3'
_cell_volume   146.70824568
_cell_formula_units_Z   1
loop_
 _symmetry_equiv_pos_site_id
 _symmetry_equiv_pos_as_xyz
  1  'x, y, z'
loop_
 _atom_site_type_symbol
 _atom_site_label
 _atom_site_symmetry_multiplicity
 _atom_site_fract_x
 _atom_site_fract_y
 _atom_site_fract_z
 _atom_site_occupancy
  In  In0  1  0.39833900  0.39833900  0.39833900  1
  Bi  Bi1  1  0.60429400  0.60429400  0.60429400  1
  Se  Se2  1  0.77522800  0.77522800  0.77522800  1
  Se  Se3  1  0.21784300  0.21784300  0.21784300  1
  Se  Se4  1  0.00429700  0.00429700  0.00429700  1
