# generated using pymatgen
data_TbSi3Ir
_symmetry_space_group_name_H-M   'P 1'
_cell_length_a   5.71228497
_cell_length_b   5.71228497
_cell_length_c   5.71228497
_cell_angle_alpha   137.08175266
_cell_angle_beta   137.08175266
_cell_angle_gamma   62.31228874
_symmetry_Int_Tables_number   1
_chemical_formula_structural   TbSi3Ir
_chemical_formula_sum   'Tb1 Si3 Ir1'
_cell_volume   85.39214365
_cell_formula_units_Z   1
loop_
 _symmetry_equiv_pos_site_id
 _symmetry_equiv_pos_as_xyz
  1  'x, y, z'
loop_
 _atom_site_type_symbol
 _atom_site_label
 _atom_site_symmetry_multiplicity
 _atom_site_fract_x
 _atom_site_fract_y
 _atom_site_fract_z
 _atom_site_occupancy
  Tb  Tb0  1  0.99814995  0.99814995  0.00000000  1
  Si  Si1  1  0.41424293  0.41424293  -0.00000000  1
  Si  Si2  1  0.26467917  0.76467917  0.50000000  1
  Si  Si3  1  0.76467917  0.26467917  0.50000000  1
  Ir  Ir4  1  0.65224777  0.65224777  -0.00000000  1
