# generated using pymatgen
data_CsCaCl3
_symmetry_space_group_name_H-M   'P 1'
_cell_length_a   5.42025854
_cell_length_b   5.41733805
_cell_length_c   5.41634602
_cell_angle_alpha   90.00570167
_cell_angle_beta   89.97678313
_cell_angle_gamma   90.01305720
_symmetry_Int_Tables_number   1
_chemical_formula_structural   CsCaCl3
_chemical_formula_sum   'Cs1 Ca1 Cl3'
_cell_volume   159.04216960
_cell_formula_units_Z   1
loop_
 _symmetry_equiv_pos_site_id
 _symmetry_equiv_pos_as_xyz
  1  'x, y, z'
loop_
 _atom_site_type_symbol
 _atom_site_label
 _atom_site_symmetry_multiplicity
 _atom_site_fract_x
 _atom_site_fract_y
 _atom_site_fract_z
 _atom_site_occupancy
  Cs  Cs0  1  0.00034147  0.00924674  0.00198640  1
  Ca  Ca1  1  0.49993183  0.51232560  0.50173691  1
  Cl  Cl2  1  0.99991100  0.51392565  0.50466655  1
  Cl  Cl3  1  0.49818694  0.01215891  0.49983324  1
  Cl  Cl4  1  0.50162776  0.51234610  0.00177890  1
