# generated using pymatgen
data_GaNi3As
_symmetry_space_group_name_H-M   'P 1'
_cell_length_a   3.95418631
_cell_length_b   3.95418631
_cell_length_c   4.88162200
_cell_angle_alpha   90.00000000
_cell_angle_beta   90.00000000
_cell_angle_gamma   119.99746190
_symmetry_Int_Tables_number   1
_chemical_formula_structural   GaNi3As
_chemical_formula_sum   'Ga1 Ni3 As1'
_cell_volume   66.10284345
_cell_formula_units_Z   1
loop_
 _symmetry_equiv_pos_site_id
 _symmetry_equiv_pos_as_xyz
  1  'x, y, z'
loop_
 _atom_site_type_symbol
 _atom_site_label
 _atom_site_symmetry_multiplicity
 _atom_site_fract_x
 _atom_site_fract_y
 _atom_site_fract_z
 _atom_site_occupancy
  Ga  Ga0  1  0.33333500  0.66666500  0.75000000  1
  Ni  Ni1  1  0.00000100  0.99999900  0.49475300  1
  Ni  Ni2  1  0.00000100  0.99999900  0.00524700  1
  Ni  Ni3  1  0.66667800  0.33332200  0.75000000  1
  As  As4  1  0.66668600  0.33331400  0.25000000  1
