# generated using pymatgen
data_SnCCl3
_symmetry_space_group_name_H-M   'P 1'
_cell_length_a   4.99746270
_cell_length_b   4.99746270
_cell_length_c   4.99746264
_cell_angle_alpha   80.06370851
_cell_angle_beta   80.06370851
_cell_angle_gamma   80.06370911
_symmetry_Int_Tables_number   1
_chemical_formula_structural   SnCCl3
_chemical_formula_sum   'Sn1 C1 Cl3'
_cell_volume   119.77525695
_cell_formula_units_Z   1
loop_
 _symmetry_equiv_pos_site_id
 _symmetry_equiv_pos_as_xyz
  1  'x, y, z'
loop_
 _atom_site_type_symbol
 _atom_site_label
 _atom_site_symmetry_multiplicity
 _atom_site_fract_x
 _atom_site_fract_y
 _atom_site_fract_z
 _atom_site_occupancy
  Sn  Sn0  1  0.49828000  0.49828000  0.49828000  1
  C  C1  1  0.92988400  0.92988400  0.92988400  1
  Cl  Cl2  1  0.54206700  0.99938400  0.99938400  1
  Cl  Cl3  1  0.99938400  0.99938400  0.54206700  1
  Cl  Cl4  1  0.99938400  0.54206700  0.99938400  1
