# generated using pymatgen
data_CeGa3Pt
_symmetry_space_group_name_H-M   'P 1'
_cell_length_a   4.22594900
_cell_length_b   4.22594900
_cell_length_c   6.15623446
_cell_angle_alpha   69.92650509
_cell_angle_beta   69.92650509
_cell_angle_gamma   90.00000000
_symmetry_Int_Tables_number   1
_chemical_formula_structural   CeGa3Pt
_chemical_formula_sum   'Ce1 Ga3 Pt1'
_cell_volume   96.12181696
_cell_formula_units_Z   1
loop_
 _symmetry_equiv_pos_site_id
 _symmetry_equiv_pos_as_xyz
  1  'x, y, z'
loop_
 _atom_site_type_symbol
 _atom_site_label
 _atom_site_symmetry_multiplicity
 _atom_site_fract_x
 _atom_site_fract_y
 _atom_site_fract_z
 _atom_site_occupancy
  Ce  Ce0  1  0.00000000  0.00000000  0.00000000  1
  Ga  Ga1  1  0.38544800  0.38544800  0.22910400  1
  Ga  Ga2  1  0.61455200  0.61455200  0.77089600  1
  Ga  Ga3  1  0.25000000  0.75000000  0.50000000  1
  Pt  Pt4  1  0.75000000  0.25000000  0.50000000  1
