# generated using pymatgen
data_CsAgBr3
_symmetry_space_group_name_H-M   'P 1'
_cell_length_a   5.49782500
_cell_length_b   5.49448200
_cell_length_c   5.49483242
_cell_angle_alpha   89.94623729
_cell_angle_beta   90.00000000
_cell_angle_gamma   90.00000000
_symmetry_Int_Tables_number   1
_chemical_formula_structural   CsAgBr3
_chemical_formula_sum   'Cs1 Ag1 Br3'
_cell_volume   165.98617895
_cell_formula_units_Z   1
loop_
 _symmetry_equiv_pos_site_id
 _symmetry_equiv_pos_as_xyz
  1  'x, y, z'
loop_
 _atom_site_type_symbol
 _atom_site_label
 _atom_site_symmetry_multiplicity
 _atom_site_fract_x
 _atom_site_fract_y
 _atom_site_fract_z
 _atom_site_occupancy
  Cs  Cs0  1  0.00000000  0.99853600  0.00598900  1
  Ag  Ag1  1  0.50000000  0.50466100  0.51526400  1
  Br  Br2  1  0.00000000  0.50528500  0.51303600  1
  Br  Br3  1  0.50000000  0.49702500  0.01515000  1
  Br  Br4  1  0.50000000  0.00449400  0.51056400  1
