# generated using pymatgen
data_ThSi3Ru
_symmetry_space_group_name_H-M   'P 1'
_cell_length_a   5.78570398
_cell_length_b   5.78570398
_cell_length_c   5.78570398
_cell_angle_alpha   137.13008712
_cell_angle_beta   137.13008712
_cell_angle_gamma   62.23795769
_symmetry_Int_Tables_number   1
_chemical_formula_structural   ThSi3Ru
_chemical_formula_sum   'Th1 Si3 Ru1'
_cell_volume   88.57160814
_cell_formula_units_Z   1
loop_
 _symmetry_equiv_pos_site_id
 _symmetry_equiv_pos_as_xyz
  1  'x, y, z'
loop_
 _atom_site_type_symbol
 _atom_site_label
 _atom_site_symmetry_multiplicity
 _atom_site_fract_x
 _atom_site_fract_y
 _atom_site_fract_z
 _atom_site_occupancy
  Th  Th0  1  0.99496581  0.99496581  -0.00000000  1
  Si  Si1  1  0.41801741  0.41801741  0.00000000  1
  Si  Si2  1  0.26286549  0.76286549  0.50000000  1
  Si  Si3  1  0.76286549  0.26286549  0.50000000  1
  Ru  Ru4  1  0.65528380  0.65528380  0.00000000  1
