# generated using pymatgen
data_InCuO3
_symmetry_space_group_name_H-M   'P 1'
_cell_length_a   6.04428266
_cell_length_b   6.04428266
_cell_length_c   6.04428237
_cell_angle_alpha   33.13839757
_cell_angle_beta   33.13839757
_cell_angle_gamma   33.13839528
_symmetry_Int_Tables_number   1
_chemical_formula_structural   InCuO3
_chemical_formula_sum   'In1 Cu1 O3'
_cell_volume   58.73804231
_cell_formula_units_Z   1
loop_
 _symmetry_equiv_pos_site_id
 _symmetry_equiv_pos_as_xyz
  1  'x, y, z'
loop_
 _atom_site_type_symbol
 _atom_site_label
 _atom_site_symmetry_multiplicity
 _atom_site_fract_x
 _atom_site_fract_y
 _atom_site_fract_z
 _atom_site_occupancy
  In  In0  1  0.49783100  0.49783100  0.49783100  1
  Cu  Cu1  1  0.00305300  0.00305300  0.00305300  1
  O  O2  1  0.11191000  0.11191000  0.11191000  1
  O  O3  1  0.89341200  0.89341200  0.89341200  1
  O  O4  1  0.34332800  0.34332800  0.34332800  1
