# generated using pymatgen
data_LaAlO3
_symmetry_space_group_name_H-M   'P 1'
_cell_length_a   4.73142022
_cell_length_b   6.39844200
_cell_length_c   4.76175457
_cell_angle_alpha   89.32638111
_cell_angle_beta   119.78947951
_cell_angle_gamma   91.35596217
_symmetry_Int_Tables_number   1
_chemical_formula_structural   LaAlO3
_chemical_formula_sum   'La1 Al1 O3'
_cell_volume   125.07172858
_cell_formula_units_Z   1
loop_
 _symmetry_equiv_pos_site_id
 _symmetry_equiv_pos_as_xyz
  1  'x, y, z'
loop_
 _atom_site_type_symbol
 _atom_site_label
 _atom_site_symmetry_multiplicity
 _atom_site_fract_x
 _atom_site_fract_y
 _atom_site_fract_z
 _atom_site_occupancy
  La  La0  1  0.00000000  0.00000000  0.00000000  1
  Al  Al1  1  0.00000000  0.50000000  0.00000000  1
  O  O2  1  0.50000000  0.00000000  0.00000000  1
  O  O3  1  0.00000000  0.00000000  0.50000000  1
  O  O4  1  0.50000000  0.00000000  0.50000000  1
