# generated using pymatgen
data_RbAgCl3
_symmetry_space_group_name_H-M   'P 1'
_cell_length_a   5.08785996
_cell_length_b   5.08795536
_cell_length_c   5.08428202
_cell_angle_alpha   90.05524840
_cell_angle_beta   90.00000000
_cell_angle_gamma   90.00000000
_symmetry_Int_Tables_number   1
_chemical_formula_structural   RbAgCl3
_chemical_formula_sum   'Rb1 Ag1 Cl3'
_cell_volume   131.61575279
_cell_formula_units_Z   1
loop_
 _symmetry_equiv_pos_site_id
 _symmetry_equiv_pos_as_xyz
  1  'x, y, z'
loop_
 _atom_site_type_symbol
 _atom_site_label
 _atom_site_symmetry_multiplicity
 _atom_site_fract_x
 _atom_site_fract_y
 _atom_site_fract_z
 _atom_site_occupancy
  Rb  Rb0  1  0.00000000  0.00092519  0.99159603  1
  Ag  Ag1  1  0.50000000  0.50206426  0.48699988  1
  Cl  Cl2  1  0.00000000  0.50360193  0.48682919  1
  Cl  Cl3  1  0.50000000  0.50119457  0.98683741  1
  Cl  Cl4  1  0.50000000  0.00221306  0.48773949  1
