# generated using pymatgen
data_RbAgF3
_symmetry_space_group_name_H-M   'P 1'
_cell_length_a   4.35220889
_cell_length_b   6.14536768
_cell_length_c   6.14490424
_cell_angle_alpha   119.94665361
_cell_angle_beta   90.06301513
_cell_angle_gamma   44.90681261
_symmetry_Int_Tables_number   1
_chemical_formula_structural   RbAgF3
_chemical_formula_sum   'Rb1 Ag1 F3'
_cell_volume   82.16833244
_cell_formula_units_Z   1
loop_
 _symmetry_equiv_pos_site_id
 _symmetry_equiv_pos_as_xyz
  1  'x, y, z'
loop_
 _atom_site_type_symbol
 _atom_site_label
 _atom_site_symmetry_multiplicity
 _atom_site_fract_x
 _atom_site_fract_y
 _atom_site_fract_z
 _atom_site_occupancy
  Rb  Rb0  1  0.49692821  0.50153320  0.00153420  1
  Ag  Ag1  1  0.99881006  0.50059914  0.50059552  1
  F  F2  1  0.49867731  0.00057675  0.00057890  1
  F  F3  1  0.49865435  0.50076565  0.50076673  1
  F  F4  1  0.49992808  0.00002926  0.50002765  1
