# generated using pymatgen
data_CsGeI3
_symmetry_space_group_name_H-M   'P 1'
_cell_length_a   8.70673270
_cell_length_b   6.12808183
_cell_length_c   6.06593398
_cell_angle_alpha   92.17638737
_cell_angle_beta   135.86282611
_cell_angle_gamma   86.96676119
_symmetry_Int_Tables_number   1
_chemical_formula_structural   CsGeI3
_chemical_formula_sum   'Cs1 Ge1 I3'
_cell_volume   225.06811679
_cell_formula_units_Z   1
loop_
 _symmetry_equiv_pos_site_id
 _symmetry_equiv_pos_as_xyz
  1  'x, y, z'
loop_
 _atom_site_type_symbol
 _atom_site_label
 _atom_site_symmetry_multiplicity
 _atom_site_fract_x
 _atom_site_fract_y
 _atom_site_fract_z
 _atom_site_occupancy
  Cs  Cs0  1  0.08901338  0.58661240  0.00000000  1
  Ge  Ge1  1  0.62735016  0.13413902  0.00000000  1
  I  I2  1  0.58837884  0.58076908  -0.00000000  1
  I  I3  1  0.08007179  0.09323975  0.48888596  1
  I  I4  1  0.59118583  0.09323975  0.51111404  1
