# generated using pymatgen
data_CsBrO3
_symmetry_space_group_name_H-M   'P 1'
_cell_length_a   4.63925474
_cell_length_b   4.63925448
_cell_length_c   4.63925404
_cell_angle_alpha   88.72505696
_cell_angle_beta   88.72504892
_cell_angle_gamma   88.72505622
_symmetry_Int_Tables_number   1
_chemical_formula_structural   CsBrO3
_chemical_formula_sum   'Cs1 Br1 O3'
_cell_volume   99.77612006
_cell_formula_units_Z   1
loop_
 _symmetry_equiv_pos_site_id
 _symmetry_equiv_pos_as_xyz
  1  'x, y, z'
loop_
 _atom_site_type_symbol
 _atom_site_label
 _atom_site_symmetry_multiplicity
 _atom_site_fract_x
 _atom_site_fract_y
 _atom_site_fract_z
 _atom_site_occupancy
  Cs  Cs0  1  0.00205166  0.00205166  0.00205166  1
  Br  Br1  1  0.46927195  0.46927195  0.46927195  1
  O  O2  1  0.11468090  0.52153275  0.52153275  1
  O  O3  1  0.52153275  0.52153275  0.11468090  1
  O  O4  1  0.52153275  0.11468090  0.52153275  1
