# generated using pymatgen
data_TlClO3
_symmetry_space_group_name_H-M   'P 1'
_cell_length_a   4.57492833
_cell_length_b   4.57492765
_cell_length_c   4.57492833
_cell_angle_alpha   83.89769319
_cell_angle_beta   83.89769346
_cell_angle_gamma   83.89769319
_symmetry_Int_Tables_number   1
_chemical_formula_structural   TlClO3
_chemical_formula_sum   'Tl1 Cl1 O3'
_cell_volume   94.23296053
_cell_formula_units_Z   1
loop_
 _symmetry_equiv_pos_site_id
 _symmetry_equiv_pos_as_xyz
  1  'x, y, z'
loop_
 _atom_site_type_symbol
 _atom_site_label
 _atom_site_symmetry_multiplicity
 _atom_site_fract_x
 _atom_site_fract_y
 _atom_site_fract_z
 _atom_site_occupancy
  Tl  Tl0  1  0.99934400  0.99934400  0.99934400  1
  Cl  Cl1  1  0.51115800  0.51115800  0.51115800  1
  O  O2  1  0.84104200  0.44422800  0.44422800  1
  O  O3  1  0.44422800  0.44422800  0.84104200  1
  O  O4  1  0.44422800  0.84104200  0.44422800  1
