# generated using pymatgen
data_KIO3
_symmetry_space_group_name_H-M   'P 1'
_cell_length_a   4.43813753
_cell_length_b   4.43813628
_cell_length_c   4.43886818
_cell_angle_alpha   88.66743015
_cell_angle_beta   88.66744490
_cell_angle_gamma   88.66447294
_symmetry_Int_Tables_number   1
_chemical_formula_structural   KIO3
_chemical_formula_sum   'K1 I1 O3'
_cell_volume   87.36269033
_cell_formula_units_Z   1
loop_
 _symmetry_equiv_pos_site_id
 _symmetry_equiv_pos_as_xyz
  1  'x, y, z'
loop_
 _atom_site_type_symbol
 _atom_site_label
 _atom_site_symmetry_multiplicity
 _atom_site_fract_x
 _atom_site_fract_y
 _atom_site_fract_z
 _atom_site_occupancy
  K  K0  1  0.00833647  0.00833647  0.00824712  1
  I  I1  1  0.50679671  0.50679671  0.50687222  1
  O  O2  1  0.54541625  0.54541625  0.09899433  1
  O  O3  1  0.09895061  0.54539896  0.54539316  1
  O  O4  1  0.54539896  0.09895061  0.54539316  1
