# generated using pymatgen
data_BaTiO3
_symmetry_space_group_name_H-M   'P 1'
_cell_length_a   3.98333387
_cell_length_b   4.05734264
_cell_length_c   4.05734236
_cell_angle_alpha   90.25451682
_cell_angle_beta   90.00000000
_cell_angle_gamma   90.00000000
_symmetry_Int_Tables_number   1
_chemical_formula_structural   BaTiO3
_chemical_formula_sum   'Ba1 Ti1 O3'
_cell_volume   65.57310742
_cell_formula_units_Z   1
loop_
 _symmetry_equiv_pos_site_id
 _symmetry_equiv_pos_as_xyz
  1  'x, y, z'
loop_
 _atom_site_type_symbol
 _atom_site_label
 _atom_site_symmetry_multiplicity
 _atom_site_fract_x
 _atom_site_fract_y
 _atom_site_fract_z
 _atom_site_occupancy
  Ba  Ba0  1  0.00000000  0.00341385  0.99658615  1
  Ti  Ti1  1  0.50000000  0.51850382  0.48149618  1
  O  O2  1  0.50000000  0.49135190  0.02157433  1
  O  O3  1  0.50000000  0.97842567  0.50864810  1
  O  O4  1  0.00000000  0.48820476  0.51179524  1
