# generated using pymatgen
data_Ag3SI
_symmetry_space_group_name_H-M   'P 1'
_cell_length_a   4.89205400
_cell_length_b   4.92517755
_cell_length_c   5.12078399
_cell_angle_alpha   89.94357745
_cell_angle_beta   89.40346588
_cell_angle_gamma   88.71918978
_symmetry_Int_Tables_number   1
_chemical_formula_structural   Ag3SI
_chemical_formula_sum   'Ag3 S1 I1'
_cell_volume   123.34382339
_cell_formula_units_Z   1
loop_
 _symmetry_equiv_pos_site_id
 _symmetry_equiv_pos_as_xyz
  1  'x, y, z'
loop_
 _atom_site_type_symbol
 _atom_site_label
 _atom_site_symmetry_multiplicity
 _atom_site_fract_x
 _atom_site_fract_y
 _atom_site_fract_z
 _atom_site_occupancy
  Ag  Ag0  1  0.97682000  0.92425700  0.06969400  1
  Ag  Ag1  1  0.96689800  0.42700600  0.72315600  1
  Ag  Ag2  1  0.53967100  0.80264100  0.49376100  1
  S  S3  1  0.03416900  0.92576200  0.56713300  1
  I  I4  1  0.48244300  0.38633400  0.07825600  1
