# generated using pymatgen
data_RbTaO3
_symmetry_space_group_name_H-M   'P 1'
_cell_length_a   4.09155295
_cell_length_b   4.09155295
_cell_length_c   4.09155242
_cell_angle_alpha   89.91297528
_cell_angle_beta   89.91297528
_cell_angle_gamma   89.91298191
_symmetry_Int_Tables_number   1
_chemical_formula_structural   RbTaO3
_chemical_formula_sum   'Rb1 Ta1 O3'
_cell_volume   68.49564662
_cell_formula_units_Z   1
loop_
 _symmetry_equiv_pos_site_id
 _symmetry_equiv_pos_as_xyz
  1  'x, y, z'
loop_
 _atom_site_type_symbol
 _atom_site_label
 _atom_site_symmetry_multiplicity
 _atom_site_fract_x
 _atom_site_fract_y
 _atom_site_fract_z
 _atom_site_occupancy
  Rb  Rb0  1  0.97718900  0.97718900  0.97718900  1
  Ta  Ta1  1  0.48841500  0.48841500  0.48841500  1
  O  O2  1  0.46821800  0.96198100  0.46821800  1
  O  O3  1  0.46821800  0.46821800  0.96198100  1
  O  O4  1  0.96198100  0.46821800  0.46821800  1
