# generated using pymatgen
data_YbAlO3
_symmetry_space_group_name_H-M   'P 1'
_cell_length_a   6.33261148
_cell_length_b   5.17683457
_cell_length_c   5.17761377
_cell_angle_alpha   60.12570365
_cell_angle_beta   35.31664223
_cell_angle_gamma   35.32192777
_symmetry_Int_Tables_number   1
_chemical_formula_structural   YbAlO3
_chemical_formula_sum   'Yb1 Al1 O3'
_cell_volume   49.07810597
_cell_formula_units_Z   1
loop_
 _symmetry_equiv_pos_site_id
 _symmetry_equiv_pos_as_xyz
  1  'x, y, z'
loop_
 _atom_site_type_symbol
 _atom_site_label
 _atom_site_symmetry_multiplicity
 _atom_site_fract_x
 _atom_site_fract_y
 _atom_site_fract_z
 _atom_site_occupancy
  Yb  Yb0  1  0.50000000  0.00000000  0.00000000  1
  Al  Al1  1  -0.00000000  0.00000000  0.00000000  1
  O  O2  1  0.50000001  -0.00000001  0.50000000  1
  O  O3  1  0.50000000  0.50000000  0.00000000  1
  O  O4  1  0.50000000  0.50000000  0.50000000  1
