# generated using pymatgen
data_RbNO3
_symmetry_space_group_name_H-M   'P 1'
_cell_length_a   4.70898074
_cell_length_b   4.70898074
_cell_length_c   4.70898035
_cell_angle_alpha   81.70017533
_cell_angle_beta   81.70017533
_cell_angle_gamma   81.70017263
_symmetry_Int_Tables_number   1
_chemical_formula_structural   RbNO3
_chemical_formula_sum   'Rb1 N1 O3'
_cell_volume   101.42668502
_cell_formula_units_Z   1
loop_
 _symmetry_equiv_pos_site_id
 _symmetry_equiv_pos_as_xyz
  1  'x, y, z'
loop_
 _atom_site_type_symbol
 _atom_site_label
 _atom_site_symmetry_multiplicity
 _atom_site_fract_x
 _atom_site_fract_y
 _atom_site_fract_z
 _atom_site_occupancy
  Rb  Rb0  1  0.50000000  0.50000000  0.50000000  1
  N  N1  1  0.00000000  0.00000000  0.00000000  1
  O  O2  1  0.20657300  0.00000000  0.79342700  1
  O  O3  1  0.79342700  0.20657300  0.00000000  1
  O  O4  1  0.00000000  0.79342700  0.20657300  1
