# generated using pymatgen
data_TlZnF3
_symmetry_space_group_name_H-M   'P 1'
_cell_length_a   4.12446156
_cell_length_b   4.11502468
_cell_length_c   4.11734167
_cell_angle_alpha   89.97427478
_cell_angle_beta   89.96413590
_cell_angle_gamma   89.98168307
_symmetry_Int_Tables_number   1
_chemical_formula_structural   TlZnF3
_chemical_formula_sum   'Tl1 Zn1 F3'
_cell_volume   69.88057355
_cell_formula_units_Z   1
loop_
 _symmetry_equiv_pos_site_id
 _symmetry_equiv_pos_as_xyz
  1  'x, y, z'
loop_
 _atom_site_type_symbol
 _atom_site_label
 _atom_site_symmetry_multiplicity
 _atom_site_fract_x
 _atom_site_fract_y
 _atom_site_fract_z
 _atom_site_occupancy
  Tl  Tl0  1  0.98910519  0.99928488  0.99596817  1
  Zn  Zn1  1  0.48799499  0.50013842  0.49873054  1
  F  F2  1  0.48738240  0.00026299  0.49768105  1
  F  F3  1  0.98767548  0.50024254  0.49921454  1
  F  F4  1  0.48784395  0.50006817  0.99841171  1
