# generated using pymatgen
data_MgTlF3
_symmetry_space_group_name_H-M   'P 1'
_cell_length_a   4.07773664
_cell_length_b   4.07704488
_cell_length_c   4.07499002
_cell_angle_alpha   90.00170047
_cell_angle_beta   89.96497647
_cell_angle_gamma   89.99560641
_symmetry_Int_Tables_number   1
_chemical_formula_structural   MgTlF3
_chemical_formula_sum   'Mg1 Tl1 F3'
_cell_volume   67.74716610
_cell_formula_units_Z   1
loop_
 _symmetry_equiv_pos_site_id
 _symmetry_equiv_pos_as_xyz
  1  'x, y, z'
loop_
 _atom_site_type_symbol
 _atom_site_label
 _atom_site_symmetry_multiplicity
 _atom_site_fract_x
 _atom_site_fract_y
 _atom_site_fract_z
 _atom_site_occupancy
  Mg  Mg0  1  0.48691141  0.49999306  0.49922206  1
  Tl  Tl1  1  0.98804622  0.99997033  0.99741270  1
  F  F2  1  0.48857138  0.00002716  0.49725327  1
  F  F3  1  0.98786850  0.50002292  0.49736463  1
  F  F4  1  0.48860149  0.49998653  0.99874435  1
