# generated using pymatgen
data_CsPdBr3
_symmetry_space_group_name_H-M   'P 1'
_cell_length_a   5.27874173
_cell_length_b   5.27976341
_cell_length_c   5.28056099
_cell_angle_alpha   90.01324861
_cell_angle_beta   90.01654079
_cell_angle_gamma   89.99626930
_symmetry_Int_Tables_number   1
_chemical_formula_structural   CsPdBr3
_chemical_formula_sum   'Cs1 Pd1 Br3'
_cell_volume   147.17190388
_cell_formula_units_Z   1
loop_
 _symmetry_equiv_pos_site_id
 _symmetry_equiv_pos_as_xyz
  1  'x, y, z'
loop_
 _atom_site_type_symbol
 _atom_site_label
 _atom_site_symmetry_multiplicity
 _atom_site_fract_x
 _atom_site_fract_y
 _atom_site_fract_z
 _atom_site_occupancy
  Cs  Cs0  1  0.99971349  0.01209724  0.00142072  1
  Pd  Pd1  1  0.50009528  0.51211222  0.50233923  1
  Br  Br2  1  0.00008225  0.51176848  0.50137834  1
  Br  Br3  1  0.49999171  0.01192508  0.50223923  1
  Br  Br4  1  0.50011926  0.51210299  0.00262148  1
