# generated using pymatgen
data_TlCdF3
_symmetry_space_group_name_H-M   'P 1'
_cell_length_a   4.41873068
_cell_length_b   4.41927837
_cell_length_c   4.43098913
_cell_angle_alpha   89.95341942
_cell_angle_beta   90.11546588
_cell_angle_gamma   90.09547893
_symmetry_Int_Tables_number   1
_chemical_formula_structural   TlCdF3
_chemical_formula_sum   'Tl1 Cd1 F3'
_cell_volume   86.52626294
_cell_formula_units_Z   1
loop_
 _symmetry_equiv_pos_site_id
 _symmetry_equiv_pos_as_xyz
  1  'x, y, z'
loop_
 _atom_site_type_symbol
 _atom_site_label
 _atom_site_symmetry_multiplicity
 _atom_site_fract_x
 _atom_site_fract_y
 _atom_site_fract_z
 _atom_site_occupancy
  Tl  Tl0  1  0.01432726  0.96856732  0.95752953  1
  Cd  Cd1  1  0.49223509  0.49412574  0.48921695  1
  F  F2  1  0.47227146  -0.00204849  0.52532058  1
  F  F3  1  0.98925097  0.51913880  0.52335701  1
  F  F4  1  0.47191721  0.52021464  0.99457493  1
