# generated using pymatgen
data_CsSrBr3
_symmetry_space_group_name_H-M   'P 1'
_cell_length_a   5.96869484
_cell_length_b   5.97374010
_cell_length_c   5.96972198
_cell_angle_alpha   89.98402263
_cell_angle_beta   89.94558956
_cell_angle_gamma   89.94529417
_symmetry_Int_Tables_number   1
_chemical_formula_structural   CsSrBr3
_chemical_formula_sum   'Cs1 Sr1 Br3'
_cell_volume   212.85281325
_cell_formula_units_Z   1
loop_
 _symmetry_equiv_pos_site_id
 _symmetry_equiv_pos_as_xyz
  1  'x, y, z'
loop_
 _atom_site_type_symbol
 _atom_site_label
 _atom_site_symmetry_multiplicity
 _atom_site_fract_x
 _atom_site_fract_y
 _atom_site_fract_z
 _atom_site_occupancy
  Cs  Cs0  1  0.99531739  0.99733507  0.99368402  1
  Sr  Sr1  1  0.48693730  0.50007251  0.49686263  1
  Br  Br2  1  0.48403505  0.00022841  0.49415849  1
  Br  Br3  1  0.98660330  0.50543710  0.50789562  1
  Br  Br4  1  0.48710797  0.49692892  0.99739924  1
