# generated using pymatgen
data_LaAlO3
_symmetry_space_group_name_H-M   'P 1'
_cell_length_a   3.77947380
_cell_length_b   3.77947445
_cell_length_c   3.77947412
_cell_angle_alpha   90.06727731
_cell_angle_beta   90.06729175
_cell_angle_gamma   90.06729702
_symmetry_Int_Tables_number   1
_chemical_formula_structural   LaAlO3
_chemical_formula_sum   'La1 Al1 O3'
_cell_volume   53.98750155
_cell_formula_units_Z   1
loop_
 _symmetry_equiv_pos_site_id
 _symmetry_equiv_pos_as_xyz
  1  'x, y, z'
loop_
 _atom_site_type_symbol
 _atom_site_label
 _atom_site_symmetry_multiplicity
 _atom_site_fract_x
 _atom_site_fract_y
 _atom_site_fract_z
 _atom_site_occupancy
  Al  Al0  1  0.50000040  0.50000039  0.49999894  1
  La  La1  1  0.00000000  0.00000000  0.00000000  1
  O  O2  1  0.50000013  0.49999907  0.99999841  1
  O  O3  1  0.50000013  0.99999920  0.49999868  1
  O  O4  1  0.99999868  0.50000066  0.49999868  1
