# generated using pymatgen
data_PrAlO3
_symmetry_space_group_name_H-M   'P 1'
_cell_length_a   3.75627926
_cell_length_b   3.75627834
_cell_length_c   3.75627893
_cell_angle_alpha   90.08903713
_cell_angle_beta   90.08903808
_cell_angle_gamma   90.08903617
_symmetry_Int_Tables_number   1
_chemical_formula_structural   PrAlO3
_chemical_formula_sum   'Pr1 Al1 O3'
_cell_volume   52.99951525
_cell_formula_units_Z   1
loop_
 _symmetry_equiv_pos_site_id
 _symmetry_equiv_pos_as_xyz
  1  'x, y, z'
loop_
 _atom_site_type_symbol
 _atom_site_label
 _atom_site_symmetry_multiplicity
 _atom_site_fract_x
 _atom_site_fract_y
 _atom_site_fract_z
 _atom_site_occupancy
  Al  Al0  1  0.00000000  0.00000000  0.00000000  1
  O  O1  1  0.00000094  0.50000102  1.00000038  1
  O  O2  1  0.50000150  0.99999799  1.00000075  1
  O  O3  1  -0.00000017  0.99999863  0.50000166  1
  Pr  Pr4  1  0.50000022  0.49999913  0.50000109  1
