# generated using pymatgen
data_SrSn3Pd
_symmetry_space_group_name_H-M   'P 1'
_cell_length_a   4.85286700
_cell_length_b   4.85286700
_cell_length_c   6.63131529
_cell_angle_alpha   111.46331251
_cell_angle_beta   111.46331251
_cell_angle_gamma   90.00000000
_symmetry_Int_Tables_number   1
_chemical_formula_structural   SrSn3Pd
_chemical_formula_sum   'Sr1 Sn3 Pd1'
_cell_volume   133.63467875
_cell_formula_units_Z   1
loop_
 _symmetry_equiv_pos_site_id
 _symmetry_equiv_pos_as_xyz
  1  'x, y, z'
loop_
 _atom_site_type_symbol
 _atom_site_label
 _atom_site_symmetry_multiplicity
 _atom_site_fract_x
 _atom_site_fract_y
 _atom_site_fract_z
 _atom_site_occupancy
  Pd  Pd0  1  0.64125045  0.64125045  0.28250228  1
  Sn  Sn1  1  0.74533225  0.24533298  0.49066585  1
  Sn  Sn2  1  0.24533298  0.74533225  0.49066585  1
  Sn  Sn3  1  0.40938027  0.40938027  0.81876036  1
  Sr  Sr4  1  0.99970226  0.99970226  0.99940576  1
