# generated using pymatgen
data_LaAlO3
_symmetry_space_group_name_H-M   'P 1'
_cell_length_a   3.77964628
_cell_length_b   3.77964706
_cell_length_c   3.77964667
_cell_angle_alpha   90.04833828
_cell_angle_beta   90.04834938
_cell_angle_gamma   90.04834380
_symmetry_Int_Tables_number   1
_chemical_formula_structural   LaAlO3
_chemical_formula_sum   'La1 Al1 O3'
_cell_volume   53.99495008
_cell_formula_units_Z   1
loop_
 _symmetry_equiv_pos_site_id
 _symmetry_equiv_pos_as_xyz
  1  'x, y, z'
loop_
 _atom_site_type_symbol
 _atom_site_label
 _atom_site_symmetry_multiplicity
 _atom_site_fract_x
 _atom_site_fract_y
 _atom_site_fract_z
 _atom_site_occupancy
  Al  Al0  1  0.00000000  0.00000000  0.00000000  1
  La  La1  1  0.50000006  0.50000092  0.49999983  1
  O  O2  1  1.00000050  0.50000010  0.99999877  1
  O  O3  1  0.49999912  0.00000127  0.99999947  1
  O  O4  1  0.00000006  1.00000073  0.49999964  1
