# generated using pymatgen
data_CeSi3Ir
_symmetry_space_group_name_H-M   'P 1'
_cell_length_a   4.29725600
_cell_length_b   4.29725600
_cell_length_c   5.80029777
_cell_angle_alpha   111.74239093
_cell_angle_beta   111.74239093
_cell_angle_gamma   90.00000000
_symmetry_Int_Tables_number   1
_chemical_formula_structural   CeSi3Ir
_chemical_formula_sum   'Ce1 Si3 Ir1'
_cell_volume   91.23648899
_cell_formula_units_Z   1
loop_
 _symmetry_equiv_pos_site_id
 _symmetry_equiv_pos_as_xyz
  1  'x, y, z'
loop_
 _atom_site_type_symbol
 _atom_site_label
 _atom_site_symmetry_multiplicity
 _atom_site_fract_x
 _atom_site_fract_y
 _atom_site_fract_z
 _atom_site_occupancy
  Ce  Ce0  1  0.00291155  0.00291155  0.00582309  1
  Ir  Ir1  1  0.65794049  0.65794049  0.31588004  1
  Si  Si2  1  0.76613526  0.26613480  0.53226959  1
  Si  Si3  1  0.26613480  0.76613526  0.53226959  1
  Si  Si4  1  0.41587857  0.41587857  0.83175713  1
