# generated using pymatgen
data_SrSi3Ni
_symmetry_space_group_name_H-M   'P 1'
_cell_length_a   4.19245200
_cell_length_b   4.19245200
_cell_length_c   5.72729551
_cell_angle_alpha   111.46952270
_cell_angle_beta   111.46952270
_cell_angle_gamma   90.00000000
_symmetry_Int_Tables_number   1
_chemical_formula_structural   SrSi3Ni
_chemical_formula_sum   'Sr1 Si3 Ni1'
_cell_volume   86.13203654
_cell_formula_units_Z   1
loop_
 _symmetry_equiv_pos_site_id
 _symmetry_equiv_pos_as_xyz
  1  'x, y, z'
loop_
 _atom_site_type_symbol
 _atom_site_label
 _atom_site_symmetry_multiplicity
 _atom_site_fract_x
 _atom_site_fract_y
 _atom_site_fract_z
 _atom_site_occupancy
  Ni  Ni0  1  0.24375934  0.24375934  0.48751869  1
  Si  Si1  1  0.00164478  0.00164478  0.00328955  1
  Si  Si2  1  0.85037784  0.35037689  0.70075378  1
  Si  Si3  1  0.35037689  0.85037784  0.70075378  1
  Sr  Sr4  1  0.59954250  0.59954250  0.19908309  1
