# generated using pymatgen
data_BaSi3Pt
_symmetry_space_group_name_H-M   'P 1'
_cell_length_a   4.44319800
_cell_length_b   4.44319800
_cell_length_c   5.95114220
_cell_angle_alpha   111.91967175
_cell_angle_beta   111.91967175
_cell_angle_gamma   90.00000000
_symmetry_Int_Tables_number   1
_chemical_formula_structural   BaSi3Pt
_chemical_formula_sum   'Ba1 Si3 Pt1'
_cell_volume   99.78035533
_cell_formula_units_Z   1
loop_
 _symmetry_equiv_pos_site_id
 _symmetry_equiv_pos_as_xyz
  1  'x, y, z'
loop_
 _atom_site_type_symbol
 _atom_site_label
 _atom_site_symmetry_multiplicity
 _atom_site_fract_x
 _atom_site_fract_y
 _atom_site_fract_z
 _atom_site_occupancy
  Ba  Ba0  1  0.60139876  0.60139876  0.20279707  1
  Pt  Pt1  1  0.24926621  0.24926621  0.49853241  1
  Si  Si2  1  0.99408091  0.99408091  0.98816137  1
  Si  Si3  1  0.85702797  0.35702775  0.71405550  1
  Si  Si4  1  0.35702775  0.85702797  0.71405550  1
