# generated using pymatgen
data_FeBiO3
_symmetry_space_group_name_H-M   'P 1'
_cell_length_a   3.90942120
_cell_length_b   3.90942155
_cell_length_c   3.90942134
_cell_angle_alpha   89.89067841
_cell_angle_beta   89.89068465
_cell_angle_gamma   89.89068457
_symmetry_Int_Tables_number   1
_chemical_formula_structural   FeBiO3
_chemical_formula_sum   'Fe1 Bi1 O3'
_cell_volume   59.74961049
_cell_formula_units_Z   1
loop_
 _symmetry_equiv_pos_site_id
 _symmetry_equiv_pos_as_xyz
  1  'x, y, z'
loop_
 _atom_site_type_symbol
 _atom_site_label
 _atom_site_symmetry_multiplicity
 _atom_site_fract_x
 _atom_site_fract_y
 _atom_site_fract_z
 _atom_site_occupancy
  Bi  Bi0  1  0.00000000  0.00000000  0.00000000  1
  Fe  Fe1  1  0.49999923  0.50000025  0.50000000  1
  O  O2  1  0.49999860  0.49999962  0.99999846  1
  O  O3  1  0.00000128  0.49999885  0.50000051  1
  O  O4  1  0.49999987  0.00000076  0.50000051  1
