# generated using pymatgen
data_SrGe3Ir
_symmetry_space_group_name_H-M   'P 1'
_cell_length_a   4.50586100
_cell_length_b   4.50586100
_cell_length_c   6.01101520
_cell_angle_alpha   112.01197790
_cell_angle_beta   112.01197790
_cell_angle_gamma   90.00000000
_symmetry_Int_Tables_number   1
_chemical_formula_structural   SrGe3Ir
_chemical_formula_sum   'Sr1 Ge3 Ir1'
_cell_volume   103.48627125
_cell_formula_units_Z   1
loop_
 _symmetry_equiv_pos_site_id
 _symmetry_equiv_pos_as_xyz
  1  'x, y, z'
loop_
 _atom_site_type_symbol
 _atom_site_label
 _atom_site_symmetry_multiplicity
 _atom_site_fract_x
 _atom_site_fract_y
 _atom_site_fract_z
 _atom_site_occupancy
  Ge  Ge0  1  0.75401165  0.25401176  0.50802341  1
  Ge  Ge1  1  0.25401176  0.75401165  0.50802341  1
  Ge  Ge2  1  0.41169216  0.41169216  0.82338414  1
  Ir  Ir3  1  0.64925989  0.64925989  0.29851994  1
  Sr  Sr4  1  0.00002452  0.00002452  0.00004905  1
