# generated using pymatgen
data_SrGe3Pt
_symmetry_space_group_name_H-M   'P 1'
_cell_length_a   4.53556100
_cell_length_b   4.53556100
_cell_length_c   6.04489213
_cell_angle_alpha   112.03397996
_cell_angle_beta   112.03397996
_cell_angle_gamma   90.00000000
_symmetry_Int_Tables_number   1
_chemical_formula_structural   SrGe3Pt
_chemical_formula_sum   'Sr1 Ge3 Pt1'
_cell_volume   105.40679367
_cell_formula_units_Z   1
loop_
 _symmetry_equiv_pos_site_id
 _symmetry_equiv_pos_as_xyz
  1  'x, y, z'
loop_
 _atom_site_type_symbol
 _atom_site_label
 _atom_site_symmetry_multiplicity
 _atom_site_fract_x
 _atom_site_fract_y
 _atom_site_fract_z
 _atom_site_occupancy
  Ge  Ge0  1  0.75586784  0.25586795  0.51173602  1
  Ge  Ge1  1  0.25586795  0.75586784  0.51173602  1
  Ge  Ge2  1  0.40239688  0.40239688  0.80479394  1
  Pt  Pt3  1  0.64524563  0.64524563  0.29049155  1
  Sr  Sr4  1  0.00062061  0.00062061  0.00124123  1
