# generated using pymatgen
data_CsGeBr3
_symmetry_space_group_name_H-M   'P 1'
_cell_length_a   5.59957100
_cell_length_b   5.59957100
_cell_length_c   5.59957100
_cell_angle_alpha   90.00000000
_cell_angle_beta   90.00000000
_cell_angle_gamma   90.00000000
_symmetry_Int_Tables_number   1
_chemical_formula_structural   CsGeBr3
_chemical_formula_sum   'Cs1 Ge1 Br3'
_cell_volume   175.57564277
_cell_formula_units_Z   1
loop_
 _symmetry_equiv_pos_site_id
 _symmetry_equiv_pos_as_xyz
  1  'x, y, z'
loop_
 _atom_site_type_symbol
 _atom_site_label
 _atom_site_symmetry_multiplicity
 _atom_site_fract_x
 _atom_site_fract_y
 _atom_site_fract_z
 _atom_site_occupancy
  Br  Br0  1  0.50000080  0.50000080  0.00000000  1
  Br  Br1  1  0.50000080  0.00000000  0.50000080  1
  Br  Br2  1  0.00000000  0.50000080  0.50000080  1
  Cs  Cs3  1  0.00000000  0.00000000  0.00000000  1
  Ge  Ge4  1  0.50000080  0.50000080  0.50000080  1
