# generated using pymatgen
data_CsGeI3
_symmetry_space_group_name_H-M   'P 1'
_cell_length_a   6.05860522
_cell_length_b   6.05860471
_cell_length_c   6.05860533
_cell_angle_alpha   88.69442780
_cell_angle_beta   88.69442697
_cell_angle_gamma   88.69443113
_symmetry_Int_Tables_number   1
_chemical_formula_structural   CsGeI3
_chemical_formula_sum   'Cs1 Ge1 I3'
_cell_volume   222.22076066
_cell_formula_units_Z   1
loop_
 _symmetry_equiv_pos_site_id
 _symmetry_equiv_pos_as_xyz
  1  'x, y, z'
loop_
 _atom_site_type_symbol
 _atom_site_label
 _atom_site_symmetry_multiplicity
 _atom_site_fract_x
 _atom_site_fract_y
 _atom_site_fract_z
 _atom_site_occupancy
  Cs  Cs0  1  0.99999213  0.99999209  0.99999173  1
  Ge  Ge1  1  0.47121905  0.47121973  0.47121941  1
  I  I2  1  0.50317515  0.50317518  0.01043852  1
  I  I3  1  0.01043825  0.50317447  0.50317470  1
  I  I4  1  0.50317518  0.01043790  0.50317470  1
