# generated using pymatgen
data_CeSi3Rh
_symmetry_space_group_name_H-M   'P 1'
_cell_length_a   4.28167500
_cell_length_b   4.28167500
_cell_length_c   5.78975739
_cell_angle_alpha   111.70100098
_cell_angle_beta   111.70100098
_cell_angle_gamma   90.00000000
_symmetry_Int_Tables_number   1
_chemical_formula_structural   CeSi3Rh
_chemical_formula_sum   'Ce1 Si3 Rh1'
_cell_volume   90.47335917
_cell_formula_units_Z   1
loop_
 _symmetry_equiv_pos_site_id
 _symmetry_equiv_pos_as_xyz
  1  'x, y, z'
loop_
 _atom_site_type_symbol
 _atom_site_label
 _atom_site_symmetry_multiplicity
 _atom_site_fract_x
 _atom_site_fract_y
 _atom_site_fract_z
 _atom_site_occupancy
  Ce  Ce0  1  0.99596023  0.99596023  0.99191906  1
  Rh  Rh1  1  0.34200029  0.34200029  0.68400043  1
  Si  Si2  1  0.58489403  0.58489403  0.16978685  1
  Si  Si3  1  0.73407432  0.23407374  0.46814736  1
  Si  Si4  1  0.23407374  0.73407432  0.46814736  1
