# generated using pymatgen
data_BaCO3
_symmetry_space_group_name_H-M   'P 1'
_cell_length_a   4.32180707
_cell_length_b   4.32180707
_cell_length_c   4.32180661
_cell_angle_alpha   103.87429471
_cell_angle_beta   76.12570529
_cell_angle_gamma   103.87430967
_symmetry_Int_Tables_number   1
_chemical_formula_structural   BaCO3
_chemical_formula_sum   'Ba1 C1 O3'
_cell_volume   74.64456016
_cell_formula_units_Z   1
loop_
 _symmetry_equiv_pos_site_id
 _symmetry_equiv_pos_as_xyz
  1  'x, y, z'
loop_
 _atom_site_type_symbol
 _atom_site_label
 _atom_site_symmetry_multiplicity
 _atom_site_fract_x
 _atom_site_fract_y
 _atom_site_fract_z
 _atom_site_occupancy
  Ba  Ba0  1  0.02427017  0.97572833  0.02426996  1
  C  C1  1  0.46829401  0.53170824  0.46829221  1
  O  O2  1  0.60586082  0.39414143  0.18371906  1
  O  O3  1  0.18371966  0.39414023  0.60585902  1
  O  O4  1  0.60586014  0.81628071  0.60585902  1
