# generated using pymatgen
data_SrNiSn3
_symmetry_space_group_name_H-M   'P 1'
_cell_length_a   4.78382900
_cell_length_b   4.78382900
_cell_length_c   6.44048471
_cell_angle_alpha   111.80119897
_cell_angle_beta   111.80119897
_cell_angle_gamma   90.00000000
_symmetry_Int_Tables_number   1
_chemical_formula_structural   SrNiSn3
_chemical_formula_sum   'Sr1 Ni1 Sn3'
_cell_volume   125.42439528
_cell_formula_units_Z   1
loop_
 _symmetry_equiv_pos_site_id
 _symmetry_equiv_pos_as_xyz
  1  'x, y, z'
loop_
 _atom_site_type_symbol
 _atom_site_label
 _atom_site_symmetry_multiplicity
 _atom_site_fract_x
 _atom_site_fract_y
 _atom_site_fract_z
 _atom_site_occupancy
  Ni  Ni0  1  0.65856283  0.65856283  0.31712760  1
  Sn  Sn1  1  0.74982051  0.24982146  0.49964302  1
  Sn  Sn2  1  0.24982146  0.74982051  0.49964302  1
  Sn  Sn3  1  0.42971852  0.42971852  0.85943722  1
  Sr  Sr4  1  0.00007481  0.00007481  0.00014962  1
