# generated using pymatgen
data_EuGe3Ir
_symmetry_space_group_name_H-M   'P 1'
_cell_length_a   4.45064000
_cell_length_b   4.45064000
_cell_length_c   5.92729695
_cell_angle_alpha   112.05125601
_cell_angle_beta   112.05125601
_cell_angle_gamma   90.00000000
_symmetry_Int_Tables_number   1
_chemical_formula_structural   EuGe3Ir
_chemical_formula_sum   'Eu1 Ge3 Ir1'
_cell_volume   99.49306451
_cell_formula_units_Z   1
loop_
 _symmetry_equiv_pos_site_id
 _symmetry_equiv_pos_as_xyz
  1  'x, y, z'
loop_
 _atom_site_type_symbol
 _atom_site_label
 _atom_site_symmetry_multiplicity
 _atom_site_fract_x
 _atom_site_fract_y
 _atom_site_fract_z
 _atom_site_occupancy
  Eu  Eu0  1  0.99886289  0.99886289  0.99772578  1
  Ge  Ge1  1  0.75386222  0.25386222  0.50772444  1
  Ge  Ge2  1  0.25386222  0.75386222  0.50772444  1
  Ge  Ge3  1  0.40912152  0.40912152  0.81824305  1
  Ir  Ir4  1  0.64729068  0.64729068  0.29458135  1
