# generated using pymatgen
data_CdCO3
_symmetry_space_group_name_H-M   'P 1'
_cell_length_a   4.35430023
_cell_length_b   4.35430060
_cell_length_c   4.35430030
_cell_angle_alpha   118.22476610
_cell_angle_beta   61.77525003
_cell_angle_gamma   118.22475066
_symmetry_Int_Tables_number   1
_chemical_formula_structural   CdCO3
_chemical_formula_sum   'Cd1 C1 O3'
_cell_volume   60.69855396
_cell_formula_units_Z   1
loop_
 _symmetry_equiv_pos_site_id
 _symmetry_equiv_pos_as_xyz
  1  'x, y, z'
loop_
 _atom_site_type_symbol
 _atom_site_label
 _atom_site_symmetry_multiplicity
 _atom_site_fract_x
 _atom_site_fract_y
 _atom_site_fract_z
 _atom_site_occupancy
  C  C0  1  0.50000046  0.50000012  0.49999883  1
  Cd  Cd1  1  0.00000000  0.00000000  0.00000000  1
  O  O2  1  0.99999895  0.49999831  0.00000033  1
  O  O3  1  0.99999906  0.00000009  0.49999938  1
  O  O4  1  0.49999894  0.00000222  1.00000165  1
