# generated using pymatgen
data_Mn3ZnN
_symmetry_space_group_name_H-M   'P 1'
_cell_length_a   3.77833500
_cell_length_b   3.77839000
_cell_length_c   3.77842700
_cell_angle_alpha   90.00000000
_cell_angle_beta   90.00000000
_cell_angle_gamma   90.00000000
_symmetry_Int_Tables_number   1
_chemical_formula_structural   Mn3ZnN
_chemical_formula_sum   'Mn3 Zn1 N1'
_cell_volume   53.94091144
_cell_formula_units_Z   1
loop_
 _symmetry_equiv_pos_site_id
 _symmetry_equiv_pos_as_xyz
  1  'x, y, z'
loop_
 _atom_site_type_symbol
 _atom_site_label
 _atom_site_symmetry_multiplicity
 _atom_site_fract_x
 _atom_site_fract_y
 _atom_site_fract_z
 _atom_site_occupancy
  Mn  Mn0  1  0.50000066  0.50000132  1.00000079  1
  Mn  Mn1  1  0.50000066  0.00000000  0.49999907  1
  Mn  Mn2  1  0.99999868  0.50000132  0.49999907  1
  N  N3  1  0.50000066  0.50000132  0.49999907  1
  Zn  Zn4  1  0.00000000  0.00000000  0.00000000  1
