# generated using pymatgen
data_FeBiO3
_symmetry_space_group_name_H-M   'P 1'
_cell_length_a   3.98535335
_cell_length_b   3.98535335
_cell_length_c   4.12930597
_cell_angle_alpha   91.69864857
_cell_angle_beta   88.30135143
_cell_angle_gamma   91.23330271
_symmetry_Int_Tables_number   1
_chemical_formula_structural   FeBiO3
_chemical_formula_sum   'Fe1 Bi1 O3'
_cell_volume   65.51431737
_cell_formula_units_Z   1
loop_
 _symmetry_equiv_pos_site_id
 _symmetry_equiv_pos_as_xyz
  1  'x, y, z'
loop_
 _atom_site_type_symbol
 _atom_site_label
 _atom_site_symmetry_multiplicity
 _atom_site_fract_x
 _atom_site_fract_y
 _atom_site_fract_z
 _atom_site_occupancy
  Bi  Bi0  1  0.94480628  0.05519443  0.93584462  1
  Fe  Fe1  1  0.51454993  0.48545079  0.50887189  1
  O  O2  1  0.55869291  0.44130780  0.04654346  1
  O  O3  1  0.03146337  0.44671159  0.57452012  1
  O  O4  1  0.55328734  0.96853555  0.57452012  1
