# generated using pymatgen
data_EuNiGe3
_symmetry_space_group_name_H-M   'P 1'
_cell_length_a   4.32373800
_cell_length_b   4.32373800
_cell_length_c   5.81177758
_cell_angle_alpha   111.83782316
_cell_angle_beta   111.83782316
_cell_angle_gamma   90.00000000
_symmetry_Int_Tables_number   1
_chemical_formula_structural   EuNiGe3
_chemical_formula_sum   'Eu1 Ni1 Ge3'
_cell_volume   92.40068073
_cell_formula_units_Z   1
loop_
 _symmetry_equiv_pos_site_id
 _symmetry_equiv_pos_as_xyz
  1  'x, y, z'
loop_
 _atom_site_type_symbol
 _atom_site_label
 _atom_site_symmetry_multiplicity
 _atom_site_fract_x
 _atom_site_fract_y
 _atom_site_fract_z
 _atom_site_occupancy
  Eu  Eu0  1  0.00928052  0.00928052  0.01856104  1
  Ge  Ge1  1  0.76407017  0.26406994  0.52813988  1
  Ge  Ge2  1  0.26406994  0.76407017  0.52813988  1
  Ge  Ge3  1  0.42930649  0.42930649  0.85861299  1
  Ni  Ni4  1  0.66327426  0.66327426  0.32654805  1
