# generated using pymatgen
data_FeBiO3
_symmetry_space_group_name_H-M   'P 1'
_cell_length_a   5.24874677
_cell_length_b   5.24874368
_cell_length_c   5.24874723
_cell_angle_alpha   62.90597711
_cell_angle_beta   62.90598170
_cell_angle_gamma   62.90602324
_symmetry_Int_Tables_number   1
_chemical_formula_structural   FeBiO3
_chemical_formula_sum   'Fe1 Bi1 O3'
_cell_volume   108.84848145
_cell_formula_units_Z   1
loop_
 _symmetry_equiv_pos_site_id
 _symmetry_equiv_pos_as_xyz
  1  'x, y, z'
loop_
 _atom_site_type_symbol
 _atom_site_label
 _atom_site_symmetry_multiplicity
 _atom_site_fract_x
 _atom_site_fract_y
 _atom_site_fract_z
 _atom_site_occupancy
  Bi  Bi0  1  0.02574024  0.02574045  0.02574009  1
  Fe  Fe1  1  0.25981828  0.25981993  0.25982045  1
  O  O2  1  0.61196855  0.95535181  0.26111945  1
  O  O3  1  0.95535172  0.26111858  0.61196987  1
  O  O4  1  0.26111641  0.61197045  0.95535422  1
