# generated using pymatgen
data_MnSnNO2
_symmetry_space_group_name_H-M   'P 1'
_cell_length_a   4.09330287
_cell_length_b   4.09330287
_cell_length_c   4.09330287
_cell_angle_alpha   90.00000000
_cell_angle_beta   90.00000000
_cell_angle_gamma   90.00000000
_symmetry_Int_Tables_number   1
_chemical_formula_structural   MnSnNO2
_chemical_formula_sum   'Mn1 Sn1 N1 O2'
_cell_volume   68.58381516
_cell_formula_units_Z   1
loop_
 _symmetry_equiv_pos_site_id
 _symmetry_equiv_pos_as_xyz
  1  'x, y, z'
loop_
 _atom_site_type_symbol
 _atom_site_label
 _atom_site_symmetry_multiplicity
 _atom_site_fract_x
 _atom_site_fract_y
 _atom_site_fract_z
 _atom_site_occupancy
  Mn  Mn0  1  0.38729756  0.00000000  1.00000000  1
  Sn  Sn1  1  0.55817522  0.50000000  0.50000000  1
  N  N2  1  0.42280412  0.00000000  0.50000000  1
  O  O3  1  0.44105458  0.50000000  0.00000000  1
  O  O4  1  0.03407624  0.50000000  0.50000000  1
