# generated using pymatgen
data_NbPdN3
_symmetry_space_group_name_H-M   'P 1'
_cell_length_a   4.11819395
_cell_length_b   4.11819395
_cell_length_c   4.11819395
_cell_angle_alpha   90.00000000
_cell_angle_beta   90.00000000
_cell_angle_gamma   90.00000000
_symmetry_Int_Tables_number   1
_chemical_formula_structural   NbPdN3
_chemical_formula_sum   'Nb1 Pd1 N3'
_cell_volume   69.84259839
_cell_formula_units_Z   1
loop_
 _symmetry_equiv_pos_site_id
 _symmetry_equiv_pos_as_xyz
  1  'x, y, z'
loop_
 _atom_site_type_symbol
 _atom_site_label
 _atom_site_symmetry_multiplicity
 _atom_site_fract_x
 _atom_site_fract_y
 _atom_site_fract_z
 _atom_site_occupancy
  Pd  Pd0  1  0.99987478  0.00000000  0.00000000  1
  Nb  Nb1  1  0.50743625  0.50000000  0.50000000  1
  N  N2  1  0.49896010  0.00000000  0.50000000  1
  N  N3  1  0.49896010  0.50000000  0.00000000  1
  N  N4  1  0.00462516  0.50000000  0.50000000  1
