# generated using pymatgen
data_MnRhN2O
_symmetry_space_group_name_H-M   'P 1'
_cell_length_a   3.92397675
_cell_length_b   3.92397675
_cell_length_c   3.92397675
_cell_angle_alpha   90.00000000
_cell_angle_beta   90.00000000
_cell_angle_gamma   90.00000000
_symmetry_Int_Tables_number   1
_chemical_formula_structural   MnRhN2O
_chemical_formula_sum   'Mn1 Rh1 N2 O1'
_cell_volume   60.41979891
_cell_formula_units_Z   1
loop_
 _symmetry_equiv_pos_site_id
 _symmetry_equiv_pos_as_xyz
  1  'x, y, z'
loop_
 _atom_site_type_symbol
 _atom_site_label
 _atom_site_symmetry_multiplicity
 _atom_site_fract_x
 _atom_site_fract_y
 _atom_site_fract_z
 _atom_site_occupancy
  Mn  Mn0  1  0.33392265  0.00000000  1.00000000  1
  Rh  Rh1  1  0.49634089  0.50000000  0.50000000  1
  N  N2  1  0.32940199  0.00000000  0.50000000  1
  N  N3  1  0.32940199  0.50000000  0.00000000  1
  O  O4  1  0.96919074  0.50000000  0.50000000  1
