# generated using pymatgen
data_CsMoNO2
_symmetry_space_group_name_H-M   'P 1'
_cell_length_a   4.48679929
_cell_length_b   4.48679929
_cell_length_c   4.48679929
_cell_angle_alpha   90.00000000
_cell_angle_beta   90.00000000
_cell_angle_gamma   90.00000000
_symmetry_Int_Tables_number   1
_chemical_formula_structural   CsMoNO2
_chemical_formula_sum   'Cs1 Mo1 N1 O2'
_cell_volume   90.32540688
_cell_formula_units_Z   1
loop_
 _symmetry_equiv_pos_site_id
 _symmetry_equiv_pos_as_xyz
  1  'x, y, z'
loop_
 _atom_site_type_symbol
 _atom_site_label
 _atom_site_symmetry_multiplicity
 _atom_site_fract_x
 _atom_site_fract_y
 _atom_site_fract_z
 _atom_site_occupancy
  Mo  Mo0  1  0.00049615  0.00000000  0.00000000  1
  Cs  Cs1  1  0.50404425  0.50000000  0.50000000  1
  N  N2  1  0.50026064  0.00000000  0.50000000  1
  O  O3  1  0.50071222  0.50000000  0.00000000  1
  O  O4  1  0.00423611  0.50000000  0.50000000  1
