# generated using pymatgen
data_RbLaO2F
_symmetry_space_group_name_H-M   'P 1'
_cell_length_a   4.63732101
_cell_length_b   4.63732101
_cell_length_c   4.63732101
_cell_angle_alpha   90.00000000
_cell_angle_beta   90.00000000
_cell_angle_gamma   90.00000000
_symmetry_Int_Tables_number   1
_chemical_formula_structural   RbLaO2F
_chemical_formula_sum   'Rb1 La1 O2 F1'
_cell_volume   99.72441136
_cell_formula_units_Z   1
loop_
 _symmetry_equiv_pos_site_id
 _symmetry_equiv_pos_as_xyz
  1  'x, y, z'
loop_
 _atom_site_type_symbol
 _atom_site_label
 _atom_site_symmetry_multiplicity
 _atom_site_fract_x
 _atom_site_fract_y
 _atom_site_fract_z
 _atom_site_occupancy
  La  La0  1  0.00054007  0.00000000  0.00000000  1
  Rb  Rb1  1  0.50538165  0.50000000  0.50000000  1
  F  F2  1  0.49952616  0.00000000  0.50000000  1
  O  O3  1  0.50005428  0.50000000  0.00000000  1
  O  O4  1  0.00489497  0.50000000  0.50000000  1
