# generated using pymatgen
data_LaTaN2O
_symmetry_space_group_name_H-M   'P 1'
_cell_length_a   4.14167281
_cell_length_b   4.14167281
_cell_length_c   4.14167281
_cell_angle_alpha   90.00000000
_cell_angle_beta   90.00000000
_cell_angle_gamma   90.00000000
_symmetry_Int_Tables_number   1
_chemical_formula_structural   LaTaN2O
_chemical_formula_sum   'La1 Ta1 N2 O1'
_cell_volume   71.04399257
_cell_formula_units_Z   1
loop_
 _symmetry_equiv_pos_site_id
 _symmetry_equiv_pos_as_xyz
  1  'x, y, z'
loop_
 _atom_site_type_symbol
 _atom_site_label
 _atom_site_symmetry_multiplicity
 _atom_site_fract_x
 _atom_site_fract_y
 _atom_site_fract_z
 _atom_site_occupancy
  La  La0  1  0.11975692  0.00000000  1.00000000  1
  Ta  Ta1  1  0.55609444  0.50000000  0.50000000  1
  N  N2  1  0.49267071  0.00000000  0.50000000  1
  N  N3  1  0.49267071  0.50000000  0.00000000  1
  O  O4  1  0.02995113  0.50000000  0.50000000  1
