# generated using pymatgen
data_ZrBN3
_symmetry_space_group_name_H-M   'P 1'
_cell_length_a   3.48006929
_cell_length_b   3.48006929
_cell_length_c   3.48006929
_cell_angle_alpha   90.00000000
_cell_angle_beta   90.00000000
_cell_angle_gamma   90.00000000
_symmetry_Int_Tables_number   1
_chemical_formula_structural   ZrBN3
_chemical_formula_sum   'Zr1 B1 N3'
_cell_volume   42.14670935
_cell_formula_units_Z   1
loop_
 _symmetry_equiv_pos_site_id
 _symmetry_equiv_pos_as_xyz
  1  'x, y, z'
loop_
 _atom_site_type_symbol
 _atom_site_label
 _atom_site_symmetry_multiplicity
 _atom_site_fract_x
 _atom_site_fract_y
 _atom_site_fract_z
 _atom_site_occupancy
  Zr  Zr0  1  0.04127821  0.00000000  0.00000000  1
  B  B1  1  0.54748962  0.50000000  0.50000000  1
  N  N2  1  0.47394011  0.00000000  0.50000000  1
  N  N3  1  0.47394011  0.50000000  0.00000000  1
  N  N4  1  0.97284836  0.50000000  0.50000000  1
