# generated using pymatgen
data_CoBSO2
_symmetry_space_group_name_H-M   'P 1'
_cell_length_a   3.97640157
_cell_length_b   3.97640157
_cell_length_c   3.97640157
_cell_angle_alpha   90.00000000
_cell_angle_beta   90.00000000
_cell_angle_gamma   90.00000000
_symmetry_Int_Tables_number   1
_chemical_formula_structural   CoBSO2
_chemical_formula_sum   'Co1 B1 S1 O2'
_cell_volume   62.87394472
_cell_formula_units_Z   1
loop_
 _symmetry_equiv_pos_site_id
 _symmetry_equiv_pos_as_xyz
  1  'x, y, z'
loop_
 _atom_site_type_symbol
 _atom_site_label
 _atom_site_symmetry_multiplicity
 _atom_site_fract_x
 _atom_site_fract_y
 _atom_site_fract_z
 _atom_site_occupancy
  B  B0  1  0.18687494  0.00000000  1.00000000  1
  Co  Co1  1  0.37439148  0.50000000  0.50000000  1
  S  S2  1  0.16794345  0.00000000  0.50000000  1
  O  O3  1  0.27050269  0.50000000  0.00000000  1
  O  O4  1  0.80935442  0.50000000  0.50000000  1
