# generated using pymatgen
data_FePbN2O
_symmetry_space_group_name_H-M   'P 1'
_cell_length_a   4.20170367
_cell_length_b   4.20170367
_cell_length_c   4.20170367
_cell_angle_alpha   90.00000000
_cell_angle_beta   90.00000000
_cell_angle_gamma   90.00000000
_symmetry_Int_Tables_number   1
_chemical_formula_structural   FePbN2O
_chemical_formula_sum   'Fe1 Pb1 N2 O1'
_cell_volume   74.17819492
_cell_formula_units_Z   1
loop_
 _symmetry_equiv_pos_site_id
 _symmetry_equiv_pos_as_xyz
  1  'x, y, z'
loop_
 _atom_site_type_symbol
 _atom_site_label
 _atom_site_symmetry_multiplicity
 _atom_site_fract_x
 _atom_site_fract_y
 _atom_site_fract_z
 _atom_site_occupancy
  Fe  Fe0  1  0.28637205  0.00000000  0.00000000  1
  Pb  Pb1  1  0.49761129  0.50000000  0.50000000  1
  N  N2  1  0.30949973  0.00000000  0.50000000  1
  N  N3  1  0.30949973  0.50000000  0.00000000  1
  O  O4  1  0.97446235  0.50000000  0.50000000  1
