# generated using pymatgen
data_RbTlNO2
_symmetry_space_group_name_H-M   'P 1'
_cell_length_a   4.49159003
_cell_length_b   4.49159003
_cell_length_c   4.49159003
_cell_angle_alpha   90.00000000
_cell_angle_beta   90.00000000
_cell_angle_gamma   90.00000000
_symmetry_Int_Tables_number   1
_chemical_formula_structural   RbTlNO2
_chemical_formula_sum   'Rb1 Tl1 N1 O2'
_cell_volume   90.61504870
_cell_formula_units_Z   1
loop_
 _symmetry_equiv_pos_site_id
 _symmetry_equiv_pos_as_xyz
  1  'x, y, z'
loop_
 _atom_site_type_symbol
 _atom_site_label
 _atom_site_symmetry_multiplicity
 _atom_site_fract_x
 _atom_site_fract_y
 _atom_site_fract_z
 _atom_site_occupancy
  Tl  Tl0  1  0.00037691  0.00000000  0.00000000  1
  Rb  Rb1  1  0.50574016  0.50000000  0.50000000  1
  N  N2  1  0.49990888  0.00000000  0.50000000  1
  O  O3  1  0.49994211  0.50000000  0.00000000  1
  O  O4  1  0.00484508  0.50000000  0.50000000  1
