# generated using pymatgen
data_MnFeNO2
_symmetry_space_group_name_H-M   'P 1'
_cell_length_a   3.74933974
_cell_length_b   3.74933974
_cell_length_c   3.74933974
_cell_angle_alpha   90.00000000
_cell_angle_beta   90.00000000
_cell_angle_gamma   90.00000000
_symmetry_Int_Tables_number   1
_chemical_formula_structural   MnFeNO2
_chemical_formula_sum   'Mn1 Fe1 N1 O2'
_cell_volume   52.70652534
_cell_formula_units_Z   1
loop_
 _symmetry_equiv_pos_site_id
 _symmetry_equiv_pos_as_xyz
  1  'x, y, z'
loop_
 _atom_site_type_symbol
 _atom_site_label
 _atom_site_symmetry_multiplicity
 _atom_site_fract_x
 _atom_site_fract_y
 _atom_site_fract_z
 _atom_site_occupancy
  Mn  Mn0  1  0.28972614  0.00000000  1.00000000  1
  Fe  Fe1  1  0.33338456  0.50000000  0.50000000  1
  N  N2  1  0.40328500  0.00000000  0.50000000  1
  O  O3  1  0.44563537  0.50000000  0.00000000  1
  O  O4  1  0.85879501  0.50000000  0.50000000  1
