# generated using pymatgen
data_OsRhNO2
_symmetry_space_group_name_H-M   'P 1'
_cell_length_a   3.91070546
_cell_length_b   3.91070546
_cell_length_c   3.91070546
_cell_angle_alpha   90.00000000
_cell_angle_beta   90.00000000
_cell_angle_gamma   90.00000000
_symmetry_Int_Tables_number   1
_chemical_formula_structural   OsRhNO2
_chemical_formula_sum   'Os1 Rh1 N1 O2'
_cell_volume   59.80883230
_cell_formula_units_Z   1
loop_
 _symmetry_equiv_pos_site_id
 _symmetry_equiv_pos_as_xyz
  1  'x, y, z'
loop_
 _atom_site_type_symbol
 _atom_site_label
 _atom_site_symmetry_multiplicity
 _atom_site_fract_x
 _atom_site_fract_y
 _atom_site_fract_z
 _atom_site_occupancy
  Rh  Rh0  1  0.00091356  0.00000000  0.00000000  1
  Os  Os1  1  0.50181830  0.50000000  0.50000000  1
  N  N2  1  0.50272971  0.00000000  0.50000000  1
  O  O3  1  0.50064358  0.50000000  0.00000000  1
  O  O4  1  0.00200283  0.50000000  0.50000000  1
