# generated using pymatgen
data_BaCrN3
_symmetry_space_group_name_H-M   'P 1'
_cell_length_a   4.00413569
_cell_length_b   4.00413569
_cell_length_c   4.00413569
_cell_angle_alpha   90.00000000
_cell_angle_beta   90.00000000
_cell_angle_gamma   90.00000000
_symmetry_Int_Tables_number   1
_chemical_formula_structural   BaCrN3
_chemical_formula_sum   'Ba1 Cr1 N3'
_cell_volume   64.19871863
_cell_formula_units_Z   1
loop_
 _symmetry_equiv_pos_site_id
 _symmetry_equiv_pos_as_xyz
  1  'x, y, z'
loop_
 _atom_site_type_symbol
 _atom_site_label
 _atom_site_symmetry_multiplicity
 _atom_site_fract_x
 _atom_site_fract_y
 _atom_site_fract_z
 _atom_site_occupancy
  Ba  Ba0  1  0.01289575  0.00000000  0.00000000  1
  Cr  Cr1  1  0.55003602  0.50000000  0.50000000  1
  N  N2  1  0.49088561  0.00000000  0.50000000  1
  N  N3  1  0.49088561  0.50000000  0.00000000  1
  N  N4  1  0.97073300  0.50000000  0.50000000  1
