# generated using pymatgen
data_FePbN2O
_symmetry_space_group_name_H-M   'P 1'
_cell_length_a   3.86831240
_cell_length_b   3.86831240
_cell_length_c   3.86831240
_cell_angle_alpha   90.00000000
_cell_angle_beta   90.00000000
_cell_angle_gamma   90.00000000
_symmetry_Int_Tables_number   1
_chemical_formula_structural   FePbN2O
_chemical_formula_sum   'Fe1 Pb1 N2 O1'
_cell_volume   57.88481104
_cell_formula_units_Z   1
loop_
 _symmetry_equiv_pos_site_id
 _symmetry_equiv_pos_as_xyz
  1  'x, y, z'
loop_
 _atom_site_type_symbol
 _atom_site_label
 _atom_site_symmetry_multiplicity
 _atom_site_fract_x
 _atom_site_fract_y
 _atom_site_fract_z
 _atom_site_occupancy
  Pb  Pb0  1  0.00198522  0.00000000  0.00000000  1
  Fe  Fe1  1  0.50395575  0.50000000  0.50000000  1
  N  N2  1  0.50027872  0.00000000  0.50000000  1
  N  N3  1  0.50027872  0.50000000  0.00000000  1
  O  O4  1  0.00362387  0.50000000  0.50000000  1
