# generated using pymatgen
data_AsAuSO2
_symmetry_space_group_name_H-M   'P 1'
_cell_length_a   4.32027370
_cell_length_b   4.32027370
_cell_length_c   4.32027370
_cell_angle_alpha   90.00000000
_cell_angle_beta   90.00000000
_cell_angle_gamma   90.00000000
_symmetry_Int_Tables_number   1
_chemical_formula_structural   AsAuSO2
_chemical_formula_sum   'As1 Au1 S1 O2'
_cell_volume   80.63689280
_cell_formula_units_Z   1
loop_
 _symmetry_equiv_pos_site_id
 _symmetry_equiv_pos_as_xyz
  1  'x, y, z'
loop_
 _atom_site_type_symbol
 _atom_site_label
 _atom_site_symmetry_multiplicity
 _atom_site_fract_x
 _atom_site_fract_y
 _atom_site_fract_z
 _atom_site_occupancy
  Au  Au0  1  0.07113017  0.00000000  0.00000000  1
  As  As1  1  0.57450462  0.50000000  0.50000000  1
  S  S2  1  0.29402367  0.00000000  0.50000000  1
  O  O3  1  0.59721815  0.50000000  0.00000000  1
  O  O4  1  0.97289923  0.50000000  0.50000000  1
