# generated using pymatgen
data_LaRuSO2
_symmetry_space_group_name_H-M   'P 1'
_cell_length_a   4.35520019
_cell_length_b   4.35520019
_cell_length_c   4.35520019
_cell_angle_alpha   90.00000000
_cell_angle_beta   90.00000000
_cell_angle_gamma   90.00000000
_symmetry_Int_Tables_number   1
_chemical_formula_structural   LaRuSO2
_chemical_formula_sum   'La1 Ru1 S1 O2'
_cell_volume   82.60842997
_cell_formula_units_Z   1
loop_
 _symmetry_equiv_pos_site_id
 _symmetry_equiv_pos_as_xyz
  1  'x, y, z'
loop_
 _atom_site_type_symbol
 _atom_site_label
 _atom_site_symmetry_multiplicity
 _atom_site_fract_x
 _atom_site_fract_y
 _atom_site_fract_z
 _atom_site_occupancy
  La  La0  1  0.90706694  0.00000000  0.00000000  1
  Ru  Ru1  1  0.55341691  0.50000000  0.50000000  1
  S  S2  1  0.40435799  0.00000000  0.50000000  1
  O  O3  1  0.62935791  0.50000000  0.00000000  1
  O  O4  1  0.02615092  0.50000000  0.50000000  1
