# generated using pymatgen
data_FeWN3
_symmetry_space_group_name_H-M   'P 1'
_cell_length_a   3.68291016
_cell_length_b   3.68291016
_cell_length_c   3.68291016
_cell_angle_alpha   90.00000000
_cell_angle_beta   90.00000000
_cell_angle_gamma   90.00000000
_symmetry_Int_Tables_number   1
_chemical_formula_structural   FeWN3
_chemical_formula_sum   'Fe1 W1 N3'
_cell_volume   49.95435703
_cell_formula_units_Z   1
loop_
 _symmetry_equiv_pos_site_id
 _symmetry_equiv_pos_as_xyz
  1  'x, y, z'
loop_
 _atom_site_type_symbol
 _atom_site_label
 _atom_site_symmetry_multiplicity
 _atom_site_fract_x
 _atom_site_fract_y
 _atom_site_fract_z
 _atom_site_occupancy
  W  W0  1  0.11404280  0.00000000  0.00000000  1
  Fe  Fe1  1  0.54065559  0.50000000  0.50000000  1
  N  N2  1  0.42042661  0.00000000  0.50000000  1
  N  N3  1  0.42042661  0.50000000  0.00000000  1
  N  N4  1  0.99867374  0.50000000  0.50000000  1
