# generated using pymatgen
data_Nb2NOF
_symmetry_space_group_name_H-M   'P 1'
_cell_length_a   4.14404543
_cell_length_b   4.14404543
_cell_length_c   4.14404543
_cell_angle_alpha   90.00000000
_cell_angle_beta   90.00000000
_cell_angle_gamma   90.00000000
_symmetry_Int_Tables_number   1
_chemical_formula_structural   Nb2NOF
_chemical_formula_sum   'Nb2 N1 O1 F1'
_cell_volume   71.16615866
_cell_formula_units_Z   1
loop_
 _symmetry_equiv_pos_site_id
 _symmetry_equiv_pos_as_xyz
  1  'x, y, z'
loop_
 _atom_site_type_symbol
 _atom_site_label
 _atom_site_symmetry_multiplicity
 _atom_site_fract_x
 _atom_site_fract_y
 _atom_site_fract_z
 _atom_site_occupancy
  Nb  Nb0  1  0.00000351  0.00000000  0.00000000  1
  Nb  Nb1  1  0.50611412  0.50000000  0.50000000  1
  F  F2  1  0.49974287  0.00000000  0.50000000  1
  N  N3  1  0.49941906  0.50000000  0.00000000  1
  O  O4  1  0.00466552  0.50000000  0.50000000  1
