# generated using pymatgen
data_CdHgNO2
_symmetry_space_group_name_H-M   'P 1'
_cell_length_a   4.26018438
_cell_length_b   4.26018438
_cell_length_c   4.26018438
_cell_angle_alpha   90.00000000
_cell_angle_beta   90.00000000
_cell_angle_gamma   90.00000000
_symmetry_Int_Tables_number   1
_chemical_formula_structural   CdHgNO2
_chemical_formula_sum   'Cd1 Hg1 N1 O2'
_cell_volume   77.31881475
_cell_formula_units_Z   1
loop_
 _symmetry_equiv_pos_site_id
 _symmetry_equiv_pos_as_xyz
  1  'x, y, z'
loop_
 _atom_site_type_symbol
 _atom_site_label
 _atom_site_symmetry_multiplicity
 _atom_site_fract_x
 _atom_site_fract_y
 _atom_site_fract_z
 _atom_site_occupancy
  Cd  Cd0  1  0.00039942  0.00000000  0.00000000  1
  Hg  Hg1  1  0.50514768  0.50000000  0.50000000  1
  N  N2  1  0.49977032  0.00000000  0.50000000  1
  O  O3  1  0.50013739  0.50000000  0.00000000  1
  O  O4  1  0.00461514  0.50000000  0.50000000  1
