# generated using pymatgen
data_LiBNO2
_symmetry_space_group_name_H-M   'P 1'
_cell_length_a   3.37408023
_cell_length_b   3.37408023
_cell_length_c   3.37408023
_cell_angle_alpha   90.00000000
_cell_angle_beta   90.00000000
_cell_angle_gamma   90.00000000
_symmetry_Int_Tables_number   1
_chemical_formula_structural   LiBNO2
_chemical_formula_sum   'Li1 B1 N1 O2'
_cell_volume   38.41193767
_cell_formula_units_Z   1
loop_
 _symmetry_equiv_pos_site_id
 _symmetry_equiv_pos_as_xyz
  1  'x, y, z'
loop_
 _atom_site_type_symbol
 _atom_site_label
 _atom_site_symmetry_multiplicity
 _atom_site_fract_x
 _atom_site_fract_y
 _atom_site_fract_z
 _atom_site_occupancy
  Li  Li0  1  0.02346102  0.00000000  0.00000000  1
  B  B1  1  0.55230706  0.50000000  0.50000000  1
  N  N2  1  0.48175692  0.00000000  0.50000000  1
  O  O3  1  0.47185503  0.50000000  0.00000000  1
  O  O4  1  0.97542533  0.50000000  0.50000000  1
