# generated using pymatgen
data_RbAgNO2
_symmetry_space_group_name_H-M   'P 1'
_cell_length_a   4.25334759
_cell_length_b   4.25334759
_cell_length_c   4.25334759
_cell_angle_alpha   90.00000000
_cell_angle_beta   90.00000000
_cell_angle_gamma   90.00000000
_symmetry_Int_Tables_number   1
_chemical_formula_structural   RbAgNO2
_chemical_formula_sum   'Rb1 Ag1 N1 O2'
_cell_volume   76.94716529
_cell_formula_units_Z   1
loop_
 _symmetry_equiv_pos_site_id
 _symmetry_equiv_pos_as_xyz
  1  'x, y, z'
loop_
 _atom_site_type_symbol
 _atom_site_label
 _atom_site_symmetry_multiplicity
 _atom_site_fract_x
 _atom_site_fract_y
 _atom_site_fract_z
 _atom_site_occupancy
  Rb  Rb0  1  0.99138322  0.00000000  0.00000000  1
  Ag  Ag1  1  0.54128072  0.50000000  0.50000000  1
  N  N2  1  0.45501879  0.00000000  0.50000000  1
  O  O3  1  0.46532248  0.50000000  0.00000000  1
  O  O4  1  0.02363255  0.50000000  0.50000000  1
