# generated using pymatgen
data_SrTeN2O
_symmetry_space_group_name_H-M   'P 1'
_cell_length_a   4.09271941
_cell_length_b   4.09271941
_cell_length_c   4.09271941
_cell_angle_alpha   90.00000000
_cell_angle_beta   90.00000000
_cell_angle_gamma   90.00000000
_symmetry_Int_Tables_number   1
_chemical_formula_structural   SrTeN2O
_chemical_formula_sum   'Sr1 Te1 N2 O1'
_cell_volume   68.55449135
_cell_formula_units_Z   1
loop_
 _symmetry_equiv_pos_site_id
 _symmetry_equiv_pos_as_xyz
  1  'x, y, z'
loop_
 _atom_site_type_symbol
 _atom_site_label
 _atom_site_symmetry_multiplicity
 _atom_site_fract_x
 _atom_site_fract_y
 _atom_site_fract_z
 _atom_site_occupancy
  Sr  Sr0  1  0.00312527  0.00000000  0.00000000  1
  Te  Te1  1  0.50400703  0.50000000  0.50000000  1
  N  N2  1  0.49998981  0.00000000  0.50000000  1
  N  N3  1  0.49998981  0.50000000  0.00000000  1
  O  O4  1  0.00309334  0.50000000  0.50000000  1
