# generated using pymatgen
data_SrTiN3
_symmetry_space_group_name_H-M   'P 1'
_cell_length_a   4.03433579
_cell_length_b   4.03433579
_cell_length_c   4.03433579
_cell_angle_alpha   90.00000000
_cell_angle_beta   90.00000000
_cell_angle_gamma   90.00000000
_symmetry_Int_Tables_number   1
_chemical_formula_structural   SrTiN3
_chemical_formula_sum   'Sr1 Ti1 N3'
_cell_volume   65.66230598
_cell_formula_units_Z   1
loop_
 _symmetry_equiv_pos_site_id
 _symmetry_equiv_pos_as_xyz
  1  'x, y, z'
loop_
 _atom_site_type_symbol
 _atom_site_label
 _atom_site_symmetry_multiplicity
 _atom_site_fract_x
 _atom_site_fract_y
 _atom_site_fract_z
 _atom_site_occupancy
  Sr  Sr0  1  0.00327976  0.00000000  0.00000000  1
  Ti  Ti1  1  0.50150409  0.50000000  0.50000000  1
  N  N2  1  0.49990836  0.00000000  0.50000000  1
  N  N3  1  0.49990836  0.50000000  0.00000000  1
  N  N4  1  0.00271556  0.50000000  0.50000000  1
