# generated using pymatgen
data_LiZnNO2
_symmetry_space_group_name_H-M   'P 1'
_cell_length_a   3.65165854
_cell_length_b   3.65165854
_cell_length_c   3.65165854
_cell_angle_alpha   90.00000000
_cell_angle_beta   90.00000000
_cell_angle_gamma   90.00000000
_symmetry_Int_Tables_number   1
_chemical_formula_structural   LiZnNO2
_chemical_formula_sum   'Li1 Zn1 N1 O2'
_cell_volume   48.69344284
_cell_formula_units_Z   1
loop_
 _symmetry_equiv_pos_site_id
 _symmetry_equiv_pos_as_xyz
  1  'x, y, z'
loop_
 _atom_site_type_symbol
 _atom_site_label
 _atom_site_symmetry_multiplicity
 _atom_site_fract_x
 _atom_site_fract_y
 _atom_site_fract_z
 _atom_site_occupancy
  Zn  Zn0  1  0.00025680  0.00000000  0.00000000  1
  Li  Li1  1  0.50572959  0.50000000  0.50000000  1
  N  N2  1  0.49941185  0.00000000  0.50000000  1
  O  O3  1  0.49996830  0.50000000  0.00000000  1
  O  O4  1  0.00482010  0.50000000  0.50000000  1
