# generated using pymatgen
data_TiBeNOF
_symmetry_space_group_name_H-M   'P 1'
_cell_length_a   3.94259457
_cell_length_b   3.94259457
_cell_length_c   3.94259457
_cell_angle_alpha   90.00000000
_cell_angle_beta   90.00000000
_cell_angle_gamma   90.00000000
_symmetry_Int_Tables_number   1
_chemical_formula_structural   TiBeNOF
_chemical_formula_sum   'Ti1 Be1 N1 O1 F1'
_cell_volume   61.28389484
_cell_formula_units_Z   1
loop_
 _symmetry_equiv_pos_site_id
 _symmetry_equiv_pos_as_xyz
  1  'x, y, z'
loop_
 _atom_site_type_symbol
 _atom_site_label
 _atom_site_symmetry_multiplicity
 _atom_site_fract_x
 _atom_site_fract_y
 _atom_site_fract_z
 _atom_site_occupancy
  Be  Be0  1  0.32891572  0.00000000  0.00000000  1
  Ti  Ti1  1  0.48749083  0.50000000  0.50000000  1
  F  F2  1  0.38245452  0.00000000  0.50000000  1
  N  N3  1  0.37965065  0.50000000  0.00000000  1
  O  O4  1  0.92003520  0.50000000  0.50000000  1
