# generated using pymatgen
data_SrPdNO2
_symmetry_space_group_name_H-M   'P 1'
_cell_length_a   4.06422529
_cell_length_b   4.06422529
_cell_length_c   4.06422529
_cell_angle_alpha   90.00000000
_cell_angle_beta   90.00000000
_cell_angle_gamma   90.00000000
_symmetry_Int_Tables_number   1
_chemical_formula_structural   SrPdNO2
_chemical_formula_sum   'Sr1 Pd1 N1 O2'
_cell_volume   67.13257755
_cell_formula_units_Z   1
loop_
 _symmetry_equiv_pos_site_id
 _symmetry_equiv_pos_as_xyz
  1  'x, y, z'
loop_
 _atom_site_type_symbol
 _atom_site_label
 _atom_site_symmetry_multiplicity
 _atom_site_fract_x
 _atom_site_fract_y
 _atom_site_fract_z
 _atom_site_occupancy
  Sr  Sr0  1  0.02241887  0.00000000  0.00000000  1
  Pd  Pd1  1  0.53508669  0.50000000  0.50000000  1
  N  N2  1  0.48346694  0.00000000  0.50000000  1
  O  O3  1  0.44911814  0.50000000  0.00000000  1
  O  O4  1  0.01471664  0.50000000  0.50000000  1
