# generated using pymatgen
data_CdAgSO2
_symmetry_space_group_name_H-M   'P 1'
_cell_length_a   4.42536993
_cell_length_b   4.42536993
_cell_length_c   4.42536993
_cell_angle_alpha   90.00000000
_cell_angle_beta   90.00000000
_cell_angle_gamma   90.00000000
_symmetry_Int_Tables_number   1
_chemical_formula_structural   CdAgSO2
_chemical_formula_sum   'Cd1 Ag1 S1 O2'
_cell_volume   86.66599806
_cell_formula_units_Z   1
loop_
 _symmetry_equiv_pos_site_id
 _symmetry_equiv_pos_as_xyz
  1  'x, y, z'
loop_
 _atom_site_type_symbol
 _atom_site_label
 _atom_site_symmetry_multiplicity
 _atom_site_fract_x
 _atom_site_fract_y
 _atom_site_fract_z
 _atom_site_occupancy
  Cd  Cd0  1  0.00077741  0.00000000  0.00000000  1
  Ag  Ag1  1  0.50454514  0.50000000  0.50000000  1
  S  S2  1  0.49729870  0.00000000  0.50000000  1
  O  O3  1  0.50062580  0.50000000  0.00000000  1
  O  O4  1  0.00565099  0.50000000  0.50000000  1
