# generated using pymatgen
data_KSnNO2
_symmetry_space_group_name_H-M   'P 1'
_cell_length_a   4.47998141
_cell_length_b   4.47998141
_cell_length_c   4.47998141
_cell_angle_alpha   90.00000000
_cell_angle_beta   90.00000000
_cell_angle_gamma   90.00000000
_symmetry_Int_Tables_number   1
_chemical_formula_structural   KSnNO2
_chemical_formula_sum   'K1 Sn1 N1 O2'
_cell_volume   89.91427295
_cell_formula_units_Z   1
loop_
 _symmetry_equiv_pos_site_id
 _symmetry_equiv_pos_as_xyz
  1  'x, y, z'
loop_
 _atom_site_type_symbol
 _atom_site_label
 _atom_site_symmetry_multiplicity
 _atom_site_fract_x
 _atom_site_fract_y
 _atom_site_fract_z
 _atom_site_occupancy
  Sn  Sn0  1  0.19354686  0.00000000  0.00000000  1
  K  K1  1  0.65987930  0.50000000  0.50000000  1
  N  N2  1  0.15811328  0.00000000  0.50000000  1
  O  O3  1  0.31054816  0.50000000  0.00000000  1
  O  O4  1  0.15823802  0.50000000  0.50000000  1
