# generated using pymatgen
data_SrLaN3
_symmetry_space_group_name_H-M   'P 1'
_cell_length_a   4.48568495
_cell_length_b   4.48568495
_cell_length_c   4.48568495
_cell_angle_alpha   90.00000000
_cell_angle_beta   90.00000000
_cell_angle_gamma   90.00000000
_symmetry_Int_Tables_number   1
_chemical_formula_structural   SrLaN3
_chemical_formula_sum   'Sr1 La1 N3'
_cell_volume   90.25812424
_cell_formula_units_Z   1
loop_
 _symmetry_equiv_pos_site_id
 _symmetry_equiv_pos_as_xyz
  1  'x, y, z'
loop_
 _atom_site_type_symbol
 _atom_site_label
 _atom_site_symmetry_multiplicity
 _atom_site_fract_x
 _atom_site_fract_y
 _atom_site_fract_z
 _atom_site_occupancy
  Sr  Sr0  1  0.00241136  0.00000000  0.00000000  1
  La  La1  1  0.50184074  0.50000000  0.50000000  1
  N  N2  1  0.50058871  0.00000000  0.50000000  1
  N  N3  1  0.50058871  0.50000000  0.00000000  1
  N  N4  1  0.00160726  0.50000000  0.50000000  1
