# generated using pymatgen
data_YTaNO2
_symmetry_space_group_name_H-M   'P 1'
_cell_length_a   4.06656478
_cell_length_b   4.06656478
_cell_length_c   4.06656478
_cell_angle_alpha   90.00000000
_cell_angle_beta   90.00000000
_cell_angle_gamma   90.00000000
_symmetry_Int_Tables_number   1
_chemical_formula_structural   YTaNO2
_chemical_formula_sum   'Y1 Ta1 N1 O2'
_cell_volume   67.24857466
_cell_formula_units_Z   1
loop_
 _symmetry_equiv_pos_site_id
 _symmetry_equiv_pos_as_xyz
  1  'x, y, z'
loop_
 _atom_site_type_symbol
 _atom_site_label
 _atom_site_symmetry_multiplicity
 _atom_site_fract_x
 _atom_site_fract_y
 _atom_site_fract_z
 _atom_site_occupancy
  Y  Y0  1  0.00041810  0.00000000  0.00000000  1
  Ta  Ta1  1  0.50451586  0.50000000  0.50000000  1
  N  N2  1  0.50005691  0.00000000  0.50000000  1
  O  O3  1  0.50049607  0.50000000  0.00000000  1
  O  O4  1  0.00448475  0.50000000  0.50000000  1
