# generated using pymatgen
data_KAlN2O
_symmetry_space_group_name_H-M   'P 1'
_cell_length_a   3.93608565
_cell_length_b   3.93608565
_cell_length_c   3.93608565
_cell_angle_alpha   90.00000000
_cell_angle_beta   90.00000000
_cell_angle_gamma   90.00000000
_symmetry_Int_Tables_number   1
_chemical_formula_structural   KAlN2O
_chemical_formula_sum   'K1 Al1 N2 O1'
_cell_volume   60.98087068
_cell_formula_units_Z   1
loop_
 _symmetry_equiv_pos_site_id
 _symmetry_equiv_pos_as_xyz
  1  'x, y, z'
loop_
 _atom_site_type_symbol
 _atom_site_label
 _atom_site_symmetry_multiplicity
 _atom_site_fract_x
 _atom_site_fract_y
 _atom_site_fract_z
 _atom_site_occupancy
  K  K0  1  0.00121461  0.00000000  0.00000000  1
  Al  Al1  1  0.50310766  0.50000000  0.50000000  1
  N  N2  1  0.50115483  0.00000000  0.50000000  1
  N  N3  1  0.50115483  0.50000000  0.00000000  1
  O  O4  1  0.00245464  0.50000000  0.50000000  1
