# generated using pymatgen
data_NaSiN3
_symmetry_space_group_name_H-M   'P 1'
_cell_length_a   3.66137360
_cell_length_b   3.66137360
_cell_length_c   3.66137360
_cell_angle_alpha   90.00000000
_cell_angle_beta   90.00000000
_cell_angle_gamma   90.00000000
_symmetry_Int_Tables_number   1
_chemical_formula_structural   NaSiN3
_chemical_formula_sum   'Na1 Si1 N3'
_cell_volume   49.08311717
_cell_formula_units_Z   1
loop_
 _symmetry_equiv_pos_site_id
 _symmetry_equiv_pos_as_xyz
  1  'x, y, z'
loop_
 _atom_site_type_symbol
 _atom_site_label
 _atom_site_symmetry_multiplicity
 _atom_site_fract_x
 _atom_site_fract_y
 _atom_site_fract_z
 _atom_site_occupancy
  Na  Na0  1  0.00099030  0.00000000  0.00000000  1
  Si  Si1  1  0.50209719  0.50000000  0.50000000  1
  N  N2  1  0.50232359  0.00000000  0.50000000  1
  N  N3  1  0.50232359  0.50000000  0.00000000  1
  N  N4  1  0.00263712  0.50000000  0.50000000  1
