# generated using pymatgen
data_NaMgN2O
_symmetry_space_group_name_H-M   'P 1'
_cell_length_a   4.04369808
_cell_length_b   4.04369808
_cell_length_c   4.04369808
_cell_angle_alpha   90.00000000
_cell_angle_beta   90.00000000
_cell_angle_gamma   90.00000000
_symmetry_Int_Tables_number   1
_chemical_formula_structural   NaMgN2O
_chemical_formula_sum   'Na1 Mg1 N2 O1'
_cell_volume   66.12050576
_cell_formula_units_Z   1
loop_
 _symmetry_equiv_pos_site_id
 _symmetry_equiv_pos_as_xyz
  1  'x, y, z'
loop_
 _atom_site_type_symbol
 _atom_site_label
 _atom_site_symmetry_multiplicity
 _atom_site_fract_x
 _atom_site_fract_y
 _atom_site_fract_z
 _atom_site_occupancy
  Na  Na0  1  0.00038345  0.00000000  0.00000000  1
  Mg  Mg1  1  0.50477102  0.50000000  0.50000000  1
  N  N2  1  0.49992266  0.00000000  0.50000000  1
  N  N3  1  0.49992266  0.50000000  0.00000000  1
  O  O4  1  0.00513409  0.50000000  0.50000000  1
