# generated using pymatgen
data_NaMnN3
_symmetry_space_group_name_H-M   'P 1'
_cell_length_a   3.97945654
_cell_length_b   3.97945654
_cell_length_c   3.97945654
_cell_angle_alpha   90.00000000
_cell_angle_beta   90.00000000
_cell_angle_gamma   90.00000000
_symmetry_Int_Tables_number   1
_chemical_formula_structural   NaMnN3
_chemical_formula_sum   'Na1 Mn1 N3'
_cell_volume   63.01896942
_cell_formula_units_Z   1
loop_
 _symmetry_equiv_pos_site_id
 _symmetry_equiv_pos_as_xyz
  1  'x, y, z'
loop_
 _atom_site_type_symbol
 _atom_site_label
 _atom_site_symmetry_multiplicity
 _atom_site_fract_x
 _atom_site_fract_y
 _atom_site_fract_z
 _atom_site_occupancy
  Mn  Mn0  1  0.20978605  0.00000000  0.00000000  1
  Na  Na1  1  0.70308325  0.50000000  0.50000000  1
  N  N2  1  0.20654321  0.00000000  0.50000000  1
  N  N3  1  0.20654321  0.50000000  0.00000000  1
  N  N4  1  0.20267446  0.50000000  0.50000000  1
