# generated using pymatgen
data_RbBO3
_symmetry_space_group_name_H-M   'P 1'
_cell_length_a   3.80175059
_cell_length_b   3.80175059
_cell_length_c   3.80175059
_cell_angle_alpha   90.00000000
_cell_angle_beta   90.00000000
_cell_angle_gamma   90.00000000
_symmetry_Int_Tables_number   1
_chemical_formula_structural   RbBO3
_chemical_formula_sum   'Rb1 B1 O3'
_cell_volume   54.94787062
_cell_formula_units_Z   1
loop_
 _symmetry_equiv_pos_site_id
 _symmetry_equiv_pos_as_xyz
  1  'x, y, z'
loop_
 _atom_site_type_symbol
 _atom_site_label
 _atom_site_symmetry_multiplicity
 _atom_site_fract_x
 _atom_site_fract_y
 _atom_site_fract_z
 _atom_site_occupancy
  Rb  Rb0  1  0.01574209  0.00000000  0.00000000  1
  B  B1  1  0.59653154  0.50000000  0.50000000  1
  O  O2  1  0.50038991  0.00000000  0.50000000  1
  O  O3  1  0.50038991  0.50000000  0.00000000  1
  O  O4  1  0.95755265  0.50000000  0.50000000  1
