# generated using pymatgen
data_CdSiN3
_symmetry_space_group_name_H-M   'P 1'
_cell_length_a   3.71979917
_cell_length_b   3.71979917
_cell_length_c   3.71979917
_cell_angle_alpha   90.00000000
_cell_angle_beta   90.00000000
_cell_angle_gamma   90.00000000
_symmetry_Int_Tables_number   1
_chemical_formula_structural   CdSiN3
_chemical_formula_sum   'Cd1 Si1 N3'
_cell_volume   51.47051091
_cell_formula_units_Z   1
loop_
 _symmetry_equiv_pos_site_id
 _symmetry_equiv_pos_as_xyz
  1  'x, y, z'
loop_
 _atom_site_type_symbol
 _atom_site_label
 _atom_site_symmetry_multiplicity
 _atom_site_fract_x
 _atom_site_fract_y
 _atom_site_fract_z
 _atom_site_occupancy
  Cd  Cd0  1  0.00898690  0.00000000  0.00000000  1
  Si  Si1  1  0.50562096  0.50000000  0.50000000  1
  N  N2  1  0.50465741  0.00000000  0.50000000  1
  N  N3  1  0.50465741  0.50000000  0.00000000  1
  N  N4  1  0.00516329  0.50000000  0.50000000  1
