# generated using pymatgen
data_ZrVSO2
_symmetry_space_group_name_H-M   'P 1'
_cell_length_a   4.18537460
_cell_length_b   4.18537460
_cell_length_c   4.18537460
_cell_angle_alpha   90.00000000
_cell_angle_beta   90.00000000
_cell_angle_gamma   90.00000000
_symmetry_Int_Tables_number   1
_chemical_formula_structural   ZrVSO2
_chemical_formula_sum   'Zr1 V1 S1 O2'
_cell_volume   73.31671611
_cell_formula_units_Z   1
loop_
 _symmetry_equiv_pos_site_id
 _symmetry_equiv_pos_as_xyz
  1  'x, y, z'
loop_
 _atom_site_type_symbol
 _atom_site_label
 _atom_site_symmetry_multiplicity
 _atom_site_fract_x
 _atom_site_fract_y
 _atom_site_fract_z
 _atom_site_occupancy
  Zr  Zr0  1  0.80806687  0.00000000  0.00000000  1
  V  V1  1  0.60681664  0.50000000  0.50000000  1
  S  S2  1  0.39029628  0.00000000  0.50000000  1
  O  O3  1  0.64641308  0.50000000  0.00000000  1
  O  O4  1  0.05858828  0.50000000  0.50000000  1
