# generated using pymatgen
data_ScAlO3
_symmetry_space_group_name_H-M   'P 1'
_cell_length_a   4.00111869
_cell_length_b   4.00111869
_cell_length_c   4.00111869
_cell_angle_alpha   90.00000000
_cell_angle_beta   90.00000000
_cell_angle_gamma   90.00000000
_symmetry_Int_Tables_number   1
_chemical_formula_structural   ScAlO3
_chemical_formula_sum   'Sc1 Al1 O3'
_cell_volume   64.05371214
_cell_formula_units_Z   1
loop_
 _symmetry_equiv_pos_site_id
 _symmetry_equiv_pos_as_xyz
  1  'x, y, z'
loop_
 _atom_site_type_symbol
 _atom_site_label
 _atom_site_symmetry_multiplicity
 _atom_site_fract_x
 _atom_site_fract_y
 _atom_site_fract_z
 _atom_site_occupancy
  Al  Al0  1  0.32403688  1.00000000  0.00000000  1
  Sc  Sc1  1  0.54954089  0.50000000  0.50000000  1
  O  O2  1  0.42864246  0.00000000  0.50000000  1
  O  O3  1  0.42864246  0.50000000  0.00000000  1
  O  O4  1  0.01301284  0.50000000  0.50000000  1
