# generated using pymatgen
data_ReRhO3
_symmetry_space_group_name_H-M   'P 1'
_cell_length_a   4.04831694
_cell_length_b   4.04831694
_cell_length_c   4.04831694
_cell_angle_alpha   90.00000000
_cell_angle_beta   90.00000000
_cell_angle_gamma   90.00000000
_symmetry_Int_Tables_number   1
_chemical_formula_structural   ReRhO3
_chemical_formula_sum   'Re1 Rh1 O3'
_cell_volume   66.34734013
_cell_formula_units_Z   1
loop_
 _symmetry_equiv_pos_site_id
 _symmetry_equiv_pos_as_xyz
  1  'x, y, z'
loop_
 _atom_site_type_symbol
 _atom_site_label
 _atom_site_symmetry_multiplicity
 _atom_site_fract_x
 _atom_site_fract_y
 _atom_site_fract_z
 _atom_site_occupancy
  Re  Re0  1  0.18629619  0.00000000  0.00000000  1
  Rh  Rh1  1  0.45987637  0.50000000  0.50000000  1
  O  O2  1  0.34310812  0.00000000  0.50000000  1
  O  O3  1  0.34310812  0.50000000  0.00000000  1
  O  O4  1  0.94862642  0.50000000  0.50000000  1
