# generated using pymatgen
data_InFeN2O
_symmetry_space_group_name_H-M   'P 1'
_cell_length_a   4.19742786
_cell_length_b   4.19742786
_cell_length_c   4.19742786
_cell_angle_alpha   90.00000000
_cell_angle_beta   90.00000000
_cell_angle_gamma   90.00000000
_symmetry_Int_Tables_number   1
_chemical_formula_structural   InFeN2O
_chemical_formula_sum   'In1 Fe1 N2 O1'
_cell_volume   73.95196551
_cell_formula_units_Z   1
loop_
 _symmetry_equiv_pos_site_id
 _symmetry_equiv_pos_as_xyz
  1  'x, y, z'
loop_
 _atom_site_type_symbol
 _atom_site_label
 _atom_site_symmetry_multiplicity
 _atom_site_fract_x
 _atom_site_fract_y
 _atom_site_fract_z
 _atom_site_occupancy
  Fe  Fe0  1  0.00046477  0.00000000  0.00000000  1
  In  In1  1  0.50547227  0.50000000  0.50000000  1
  N  N2  1  0.49974052  0.00000000  0.50000000  1
  N  N3  1  0.49974052  0.50000000  0.00000000  1
  O  O4  1  0.00483775  0.50000000  0.50000000  1
