# generated using pymatgen
data_MgRhO3
_symmetry_space_group_name_H-M   'P 1'
_cell_length_a   3.97492000
_cell_length_b   3.97492000
_cell_length_c   3.97492000
_cell_angle_alpha   90.00000000
_cell_angle_beta   90.00000000
_cell_angle_gamma   90.00000000
_symmetry_Int_Tables_number   1
_chemical_formula_structural   MgRhO3
_chemical_formula_sum   'Mg1 Rh1 O3'
_cell_volume   62.80369216
_cell_formula_units_Z   1
loop_
 _symmetry_equiv_pos_site_id
 _symmetry_equiv_pos_as_xyz
  1  'x, y, z'
loop_
 _atom_site_type_symbol
 _atom_site_label
 _atom_site_symmetry_multiplicity
 _atom_site_fract_x
 _atom_site_fract_y
 _atom_site_fract_z
 _atom_site_occupancy
  Mg  Mg0  1  0.43869720  1.00000000  0.00000000  1
  Rh  Rh1  1  0.71096082  0.50000000  0.50000000  1
  O  O2  1  0.59827460  1.00000000  0.50000000  1
  O  O3  1  0.59827460  0.50000000  1.00000000  1
  O  O4  1  0.18795821  0.50000000  0.50000000  1
