# generated using pymatgen
data_SrNiN3
_symmetry_space_group_name_H-M   'P 1'
_cell_length_a   3.92620380
_cell_length_b   3.92620380
_cell_length_c   3.92620380
_cell_angle_alpha   90.00000000
_cell_angle_beta   90.00000000
_cell_angle_gamma   90.00000000
_symmetry_Int_Tables_number   1
_chemical_formula_structural   SrNiN3
_chemical_formula_sum   'Sr1 Ni1 N3'
_cell_volume   60.52273119
_cell_formula_units_Z   1
loop_
 _symmetry_equiv_pos_site_id
 _symmetry_equiv_pos_as_xyz
  1  'x, y, z'
loop_
 _atom_site_type_symbol
 _atom_site_label
 _atom_site_symmetry_multiplicity
 _atom_site_fract_x
 _atom_site_fract_y
 _atom_site_fract_z
 _atom_site_occupancy
  Sr  Sr0  1  0.00135997  0.00000000  0.00000000  1
  Ni  Ni1  1  0.50050549  0.50000000  0.50000000  1
  N  N2  1  0.49966272  0.00000000  0.50000000  1
  N  N3  1  0.49966272  0.50000000  0.00000000  1
  N  N4  1  0.00025902  0.50000000  0.50000000  1
