# generated using pymatgen
data_FeCuSO2
_symmetry_space_group_name_H-M   'P 1'
_cell_length_a   4.04248513
_cell_length_b   4.04248513
_cell_length_c   4.04248513
_cell_angle_alpha   90.00000000
_cell_angle_beta   90.00000000
_cell_angle_gamma   90.00000000
_symmetry_Int_Tables_number   1
_chemical_formula_structural   FeCuSO2
_chemical_formula_sum   'Fe1 Cu1 S1 O2'
_cell_volume   66.06102262
_cell_formula_units_Z   1
loop_
 _symmetry_equiv_pos_site_id
 _symmetry_equiv_pos_as_xyz
  1  'x, y, z'
loop_
 _atom_site_type_symbol
 _atom_site_label
 _atom_site_symmetry_multiplicity
 _atom_site_fract_x
 _atom_site_fract_y
 _atom_site_fract_z
 _atom_site_occupancy
  Cu  Cu0  1  0.81163785  1.00000000  0.00000000  1
  Fe  Fe1  1  0.67228439  0.50000000  0.50000000  1
  S  S2  1  0.11003820  0.00000000  0.50000000  1
  O  O3  1  0.67239079  0.50000000  0.00000000  1
  O  O4  1  0.18081258  0.50000000  0.50000000  1
