# generated using pymatgen
data_AlCoO2F
_symmetry_space_group_name_H-M   'P 1'
_cell_length_a   3.74613544
_cell_length_b   3.74613544
_cell_length_c   3.74613544
_cell_angle_alpha   90.00000000
_cell_angle_beta   90.00000000
_cell_angle_gamma   90.00000000
_symmetry_Int_Tables_number   1
_chemical_formula_structural   AlCoO2F
_chemical_formula_sum   'Al1 Co1 O2 F1'
_cell_volume   52.57150688
_cell_formula_units_Z   1
loop_
 _symmetry_equiv_pos_site_id
 _symmetry_equiv_pos_as_xyz
  1  'x, y, z'
loop_
 _atom_site_type_symbol
 _atom_site_label
 _atom_site_symmetry_multiplicity
 _atom_site_fract_x
 _atom_site_fract_y
 _atom_site_fract_z
 _atom_site_occupancy
  Co  Co0  1  0.01028771  0.00000000  0.00000000  1
  Al  Al1  1  0.50390323  0.50000000  0.50000000  1
  F  F2  1  0.49923608  0.00000000  0.50000000  1
  O  O3  1  0.50198401  0.50000000  0.00000000  1
  O  O4  1  0.00367698  0.50000000  0.50000000  1
