# generated using pymatgen
data_CsBeNO2
_symmetry_space_group_name_H-M   'P 1'
_cell_length_a   4.24019579
_cell_length_b   4.24019579
_cell_length_c   4.24019579
_cell_angle_alpha   90.00000000
_cell_angle_beta   90.00000000
_cell_angle_gamma   90.00000000
_symmetry_Int_Tables_number   1
_chemical_formula_structural   CsBeNO2
_chemical_formula_sum   'Cs1 Be1 N1 O2'
_cell_volume   76.23558426
_cell_formula_units_Z   1
loop_
 _symmetry_equiv_pos_site_id
 _symmetry_equiv_pos_as_xyz
  1  'x, y, z'
loop_
 _atom_site_type_symbol
 _atom_site_label
 _atom_site_symmetry_multiplicity
 _atom_site_fract_x
 _atom_site_fract_y
 _atom_site_fract_z
 _atom_site_occupancy
  Be  Be0  1  0.18063307  0.00000000  1.00000000  1
  Cs  Cs1  1  0.68228159  0.50000000  0.50000000  1
  N  N2  1  0.17943895  0.00000000  0.50000000  1
  O  O3  1  0.18215147  0.50000000  0.00000000  1
  O  O4  1  0.18233100  0.50000000  0.50000000  1
