# generated using pymatgen
data_LaBSO2
_symmetry_space_group_name_H-M   'P 1'
_cell_length_a   4.10803732
_cell_length_b   4.10803732
_cell_length_c   4.10803732
_cell_angle_alpha   90.00000000
_cell_angle_beta   90.00000000
_cell_angle_gamma   90.00000000
_symmetry_Int_Tables_number   1
_chemical_formula_structural   LaBSO2
_chemical_formula_sum   'La1 B1 S1 O2'
_cell_volume   69.32711696
_cell_formula_units_Z   1
loop_
 _symmetry_equiv_pos_site_id
 _symmetry_equiv_pos_as_xyz
  1  'x, y, z'
loop_
 _atom_site_type_symbol
 _atom_site_label
 _atom_site_symmetry_multiplicity
 _atom_site_fract_x
 _atom_site_fract_y
 _atom_site_fract_z
 _atom_site_occupancy
  La  La0  1  0.93998498  0.00000000  0.00000000  1
  B  B1  1  0.62761044  0.50000000  0.50000000  1
  S  S2  1  0.43514287  0.00000000  0.50000000  1
  O  O3  1  0.54996472  0.50000000  0.00000000  1
  O  O4  1  0.95906415  0.50000000  0.50000000  1
