# generated using pymatgen
data_CdFeN3
_symmetry_space_group_name_H-M   'P 1'
_cell_length_a   3.78645181
_cell_length_b   3.78645181
_cell_length_c   3.78645181
_cell_angle_alpha   90.00000000
_cell_angle_beta   90.00000000
_cell_angle_gamma   90.00000000
_symmetry_Int_Tables_number   1
_chemical_formula_structural   CdFeN3
_chemical_formula_sum   'Cd1 Fe1 N3'
_cell_volume   54.28718258
_cell_formula_units_Z   1
loop_
 _symmetry_equiv_pos_site_id
 _symmetry_equiv_pos_as_xyz
  1  'x, y, z'
loop_
 _atom_site_type_symbol
 _atom_site_label
 _atom_site_symmetry_multiplicity
 _atom_site_fract_x
 _atom_site_fract_y
 _atom_site_fract_z
 _atom_site_occupancy
  Cd  Cd0  1  0.03874025  0.00000000  0.00000000  1
  Fe  Fe1  1  0.56627699  0.50000000  0.50000000  1
  N  N2  1  0.44825203  0.00000000  0.50000000  1
  N  N3  1  0.44825203  0.50000000  0.00000000  1
  N  N4  1  0.99703177  0.50000000  0.50000000  1
