# generated using pymatgen
data_KSrSO2
_symmetry_space_group_name_H-M   'P 1'
_cell_length_a   5.27576483
_cell_length_b   5.27576483
_cell_length_c   5.27576483
_cell_angle_alpha   90.00000000
_cell_angle_beta   90.00000000
_cell_angle_gamma   90.00000000
_symmetry_Int_Tables_number   1
_chemical_formula_structural   KSrSO2
_chemical_formula_sum   'K1 Sr1 S1 O2'
_cell_volume   146.84402637
_cell_formula_units_Z   1
loop_
 _symmetry_equiv_pos_site_id
 _symmetry_equiv_pos_as_xyz
  1  'x, y, z'
loop_
 _atom_site_type_symbol
 _atom_site_label
 _atom_site_symmetry_multiplicity
 _atom_site_fract_x
 _atom_site_fract_y
 _atom_site_fract_z
 _atom_site_occupancy
  K  K0  1  0.00070550  0.00000000  0.00000000  1
  Sr  Sr1  1  0.50661015  0.50000000  0.50000000  1
  S  S2  1  0.49875746  0.00000000  0.50000000  1
  O  O3  1  0.50126362  0.50000000  0.00000000  1
  O  O4  1  0.00369187  0.50000000  0.50000000  1
