# generated using pymatgen
data_KTaNO2
_symmetry_space_group_name_H-M   'P 1'
_cell_length_a   4.27122687
_cell_length_b   4.27122687
_cell_length_c   4.27122687
_cell_angle_alpha   90.00000000
_cell_angle_beta   90.00000000
_cell_angle_gamma   90.00000000
_symmetry_Int_Tables_number   1
_chemical_formula_structural   KTaNO2
_chemical_formula_sum   'K1 Ta1 N1 O2'
_cell_volume   77.92161049
_cell_formula_units_Z   1
loop_
 _symmetry_equiv_pos_site_id
 _symmetry_equiv_pos_as_xyz
  1  'x, y, z'
loop_
 _atom_site_type_symbol
 _atom_site_label
 _atom_site_symmetry_multiplicity
 _atom_site_fract_x
 _atom_site_fract_y
 _atom_site_fract_z
 _atom_site_occupancy
  Ta  Ta0  1  0.22827039  0.00000000  0.00000000  1
  K  K1  1  0.63230130  0.50000000  0.50000000  1
  N  N2  1  0.20214519  0.00000000  0.50000000  1
  O  O3  1  0.34120909  0.50000000  0.00000000  1
  O  O4  1  0.11993375  0.50000000  0.50000000  1
