# generated using pymatgen
data_VBiNO2
_symmetry_space_group_name_H-M   'P 1'
_cell_length_a   4.21934110
_cell_length_b   4.21934110
_cell_length_c   4.21934110
_cell_angle_alpha   90.00000000
_cell_angle_beta   90.00000000
_cell_angle_gamma   90.00000000
_symmetry_Int_Tables_number   1
_chemical_formula_structural   VBiNO2
_chemical_formula_sum   'V1 Bi1 N1 O2'
_cell_volume   75.11625171
_cell_formula_units_Z   1
loop_
 _symmetry_equiv_pos_site_id
 _symmetry_equiv_pos_as_xyz
  1  'x, y, z'
loop_
 _atom_site_type_symbol
 _atom_site_label
 _atom_site_symmetry_multiplicity
 _atom_site_fract_x
 _atom_site_fract_y
 _atom_site_fract_z
 _atom_site_occupancy
  V  V0  1  0.00131212  0.00000000  0.00000000  1
  Bi  Bi1  1  0.50161600  0.50000000  0.50000000  1
  N  N2  1  0.49988119  0.00000000  0.50000000  1
  O  O3  1  0.50042364  0.50000000  0.00000000  1
  O  O4  1  0.00191025  0.50000000  0.50000000  1
