# generated using pymatgen
data_TaGeNO2
_symmetry_space_group_name_H-M   'P 1'
_cell_length_a   4.08734220
_cell_length_b   4.08734220
_cell_length_c   4.08734220
_cell_angle_alpha   90.00000000
_cell_angle_beta   90.00000000
_cell_angle_gamma   90.00000000
_symmetry_Int_Tables_number   1
_chemical_formula_structural   TaGeNO2
_chemical_formula_sum   'Ta1 Ge1 N1 O2'
_cell_volume   68.28463571
_cell_formula_units_Z   1
loop_
 _symmetry_equiv_pos_site_id
 _symmetry_equiv_pos_as_xyz
  1  'x, y, z'
loop_
 _atom_site_type_symbol
 _atom_site_label
 _atom_site_symmetry_multiplicity
 _atom_site_fract_x
 _atom_site_fract_y
 _atom_site_fract_z
 _atom_site_occupancy
  Ge  Ge0  1  0.26088199  0.00000000  0.00000000  1
  Ta  Ta1  1  0.61290140  0.50000000  0.50000000  1
  N  N2  1  0.51884863  0.00000000  0.50000000  1
  O  O3  1  0.52685191  0.50000000  0.00000000  1
  O  O4  1  0.07513759  0.50000000  0.50000000  1
