# generated using pymatgen
data_NaMoN2O
_symmetry_space_group_name_H-M   'P 1'
_cell_length_a   3.99806493
_cell_length_b   3.99806493
_cell_length_c   3.99806493
_cell_angle_alpha   90.00000000
_cell_angle_beta   90.00000000
_cell_angle_gamma   90.00000000
_symmetry_Int_Tables_number   1
_chemical_formula_structural   NaMoN2O
_chemical_formula_sum   'Na1 Mo1 N2 O1'
_cell_volume   63.90716147
_cell_formula_units_Z   1
loop_
 _symmetry_equiv_pos_site_id
 _symmetry_equiv_pos_as_xyz
  1  'x, y, z'
loop_
 _atom_site_type_symbol
 _atom_site_label
 _atom_site_symmetry_multiplicity
 _atom_site_fract_x
 _atom_site_fract_y
 _atom_site_fract_z
 _atom_site_occupancy
  Na  Na0  1  0.01848697  0.00000000  0.00000000  1
  Mo  Mo1  1  0.52712229  0.50000000  0.50000000  1
  N  N2  1  0.48635445  0.00000000  0.50000000  1
  N  N3  1  0.48635445  0.50000000  0.00000000  1
  O  O4  1  0.99706994  0.50000000  0.50000000  1
