# generated using pymatgen
data_ScTaNO2
_symmetry_space_group_name_H-M   'P 1'
_cell_length_a   4.04297735
_cell_length_b   4.04297735
_cell_length_c   4.04297735
_cell_angle_alpha   90.00000000
_cell_angle_beta   90.00000000
_cell_angle_gamma   90.00000000
_symmetry_Int_Tables_number   1
_chemical_formula_structural   ScTaNO2
_chemical_formula_sum   'Sc1 Ta1 N1 O2'
_cell_volume   66.08515659
_cell_formula_units_Z   1
loop_
 _symmetry_equiv_pos_site_id
 _symmetry_equiv_pos_as_xyz
  1  'x, y, z'
loop_
 _atom_site_type_symbol
 _atom_site_label
 _atom_site_symmetry_multiplicity
 _atom_site_fract_x
 _atom_site_fract_y
 _atom_site_fract_z
 _atom_site_occupancy
  Ta  Ta0  1  0.10490282  0.00000000  0.00000000  1
  Sc  Sc1  1  0.41898565  0.50000000  0.50000000  1
  N  N2  1  0.25931238  0.00000000  0.50000000  1
  O  O3  1  0.27557308  0.50000000  0.00000000  1
  O  O4  1  0.88492251  0.50000000  0.50000000  1
