# generated using pymatgen
data_TiSnN2O
_symmetry_space_group_name_H-M   'P 1'
_cell_length_a   4.03864352
_cell_length_b   4.03864352
_cell_length_c   4.03864352
_cell_angle_alpha   90.00000000
_cell_angle_beta   90.00000000
_cell_angle_gamma   90.00000000
_symmetry_Int_Tables_number   1
_chemical_formula_structural   TiSnN2O
_chemical_formula_sum   'Ti1 Sn1 N2 O1'
_cell_volume   65.87286675
_cell_formula_units_Z   1
loop_
 _symmetry_equiv_pos_site_id
 _symmetry_equiv_pos_as_xyz
  1  'x, y, z'
loop_
 _atom_site_type_symbol
 _atom_site_label
 _atom_site_symmetry_multiplicity
 _atom_site_fract_x
 _atom_site_fract_y
 _atom_site_fract_z
 _atom_site_occupancy
  Sn  Sn0  1  0.13432846  0.00000000  1.00000000  1
  Ti  Ti1  1  0.47988983  0.50000000  0.50000000  1
  N  N2  1  0.36959453  0.00000000  0.50000000  1
  N  N3  1  0.36959453  0.50000000  0.00000000  1
  O  O4  1  0.91845292  0.50000000  0.50000000  1
