# generated using pymatgen
data_CsBaO2F
_symmetry_space_group_name_H-M   'P 1'
_cell_length_a   5.09973394
_cell_length_b   5.09973394
_cell_length_c   5.09973394
_cell_angle_alpha   90.00000000
_cell_angle_beta   90.00000000
_cell_angle_gamma   90.00000000
_symmetry_Int_Tables_number   1
_chemical_formula_structural   CsBaO2F
_chemical_formula_sum   'Cs1 Ba1 O2 F1'
_cell_volume   132.63024029
_cell_formula_units_Z   1
loop_
 _symmetry_equiv_pos_site_id
 _symmetry_equiv_pos_as_xyz
  1  'x, y, z'
loop_
 _atom_site_type_symbol
 _atom_site_label
 _atom_site_symmetry_multiplicity
 _atom_site_fract_x
 _atom_site_fract_y
 _atom_site_fract_z
 _atom_site_occupancy
  Cs  Cs0  1  0.00075801  0.00000000  0.00000000  1
  Ba  Ba1  1  0.50507714  0.50000000  0.50000000  1
  F  F2  1  0.50009775  0.00000000  0.50000000  1
  O  O3  1  0.50056585  0.50000000  0.00000000  1
  O  O4  1  0.00380208  0.50000000  0.50000000  1
