# generated using pymatgen
data_SnPdO3
_symmetry_space_group_name_H-M   'P 1'
_cell_length_a   4.08638808
_cell_length_b   4.08638808
_cell_length_c   4.08638808
_cell_angle_alpha   90.00000000
_cell_angle_beta   90.00000000
_cell_angle_gamma   90.00000000
_symmetry_Int_Tables_number   1
_chemical_formula_structural   SnPdO3
_chemical_formula_sum   'Sn1 Pd1 O3'
_cell_volume   68.23682720
_cell_formula_units_Z   1
loop_
 _symmetry_equiv_pos_site_id
 _symmetry_equiv_pos_as_xyz
  1  'x, y, z'
loop_
 _atom_site_type_symbol
 _atom_site_label
 _atom_site_symmetry_multiplicity
 _atom_site_fract_x
 _atom_site_fract_y
 _atom_site_fract_z
 _atom_site_occupancy
  Pd  Pd0  1  0.01204152  0.00000000  0.00000000  1
  Sn  Sn1  1  0.51456700  0.50000000  0.50000000  1
  O  O2  1  0.50582012  0.00000000  0.50000000  1
  O  O3  1  0.50582012  0.50000000  0.00000000  1
  O  O4  1  0.01288423  0.50000000  0.50000000  1
