# generated using pymatgen
data_AgWN2O
_symmetry_space_group_name_H-M   'P 1'
_cell_length_a   4.04544680
_cell_length_b   4.04544680
_cell_length_c   4.04544680
_cell_angle_alpha   90.00000000
_cell_angle_beta   90.00000000
_cell_angle_gamma   90.00000000
_symmetry_Int_Tables_number   1
_chemical_formula_structural   AgWN2O
_chemical_formula_sum   'Ag1 W1 N2 O1'
_cell_volume   66.20632503
_cell_formula_units_Z   1
loop_
 _symmetry_equiv_pos_site_id
 _symmetry_equiv_pos_as_xyz
  1  'x, y, z'
loop_
 _atom_site_type_symbol
 _atom_site_label
 _atom_site_symmetry_multiplicity
 _atom_site_fract_x
 _atom_site_fract_y
 _atom_site_fract_z
 _atom_site_occupancy
  Ag  Ag0  1  0.13665342  0.00000000  0.00000000  1
  W  W1  1  0.49648149  0.50000000  0.50000000  1
  N  N2  1  0.44545305  0.00000000  0.50000000  1
  N  N3  1  0.44545305  0.50000000  0.00000000  1
  O  O4  1  0.96271197  0.50000000  0.50000000  1
