# generated using pymatgen
data_RbMgN3
_symmetry_space_group_name_H-M   'P 1'
_cell_length_a   4.53244637
_cell_length_b   4.53244637
_cell_length_c   4.53244637
_cell_angle_alpha   90.00000000
_cell_angle_beta   90.00000000
_cell_angle_gamma   90.00000000
_symmetry_Int_Tables_number   1
_chemical_formula_structural   RbMgN3
_chemical_formula_sum   'Rb1 Mg1 N3'
_cell_volume   93.11036375
_cell_formula_units_Z   1
loop_
 _symmetry_equiv_pos_site_id
 _symmetry_equiv_pos_as_xyz
  1  'x, y, z'
loop_
 _atom_site_type_symbol
 _atom_site_label
 _atom_site_symmetry_multiplicity
 _atom_site_fract_x
 _atom_site_fract_y
 _atom_site_fract_z
 _atom_site_occupancy
  Mg  Mg0  1  0.00033244  0.00000000  0.00000000  1
  Rb  Rb1  1  0.50484237  0.50000000  0.50000000  1
  N  N2  1  0.50019407  0.00000000  0.50000000  1
  N  N3  1  0.50019407  0.50000000  0.00000000  1
  N  N4  1  0.00471464  0.50000000  0.50000000  1
