# generated using pymatgen
data_NiBSO2
_symmetry_space_group_name_H-M   'P 1'
_cell_length_a   3.92356971
_cell_length_b   3.92356971
_cell_length_c   3.92356971
_cell_angle_alpha   90.00000000
_cell_angle_beta   90.00000000
_cell_angle_gamma   90.00000000
_symmetry_Int_Tables_number   1
_chemical_formula_structural   NiBSO2
_chemical_formula_sum   'Ni1 B1 S1 O2'
_cell_volume   60.40099846
_cell_formula_units_Z   1
loop_
 _symmetry_equiv_pos_site_id
 _symmetry_equiv_pos_as_xyz
  1  'x, y, z'
loop_
 _atom_site_type_symbol
 _atom_site_label
 _atom_site_symmetry_multiplicity
 _atom_site_fract_x
 _atom_site_fract_y
 _atom_site_fract_z
 _atom_site_occupancy
  B  B0  1  0.36122676  0.00000000  1.00000000  1
  Ni  Ni1  1  0.56459103  0.50000000  0.50000000  1
  S  S2  1  0.30590610  0.00000000  0.50000000  1
  O  O3  1  0.47705137  0.50000000  0.00000000  1
  O  O4  1  0.02538628  0.50000000  0.50000000  1
