# generated using pymatgen
data_CoWN3
_symmetry_space_group_name_H-M   'P 1'
_cell_length_a   4.01732927
_cell_length_b   4.01732927
_cell_length_c   4.01732927
_cell_angle_alpha   90.00000000
_cell_angle_beta   90.00000000
_cell_angle_gamma   90.00000000
_symmetry_Int_Tables_number   1
_chemical_formula_structural   CoWN3
_chemical_formula_sum   'Co1 W1 N3'
_cell_volume   64.83541399
_cell_formula_units_Z   1
loop_
 _symmetry_equiv_pos_site_id
 _symmetry_equiv_pos_as_xyz
  1  'x, y, z'
loop_
 _atom_site_type_symbol
 _atom_site_label
 _atom_site_symmetry_multiplicity
 _atom_site_fract_x
 _atom_site_fract_y
 _atom_site_fract_z
 _atom_site_occupancy
  Co  Co0  1  0.36002819  1.00000000  0.00000000  1
  W  W1  1  0.45011154  0.50000000  0.50000000  1
  N  N2  1  0.37465190  0.00000000  0.50000000  1
  N  N3  1  0.37465190  0.50000000  0.00000000  1
  N  N4  1  0.90640308  0.50000000  0.50000000  1
