# generated using pymatgen
data_BaCdN2O
_symmetry_space_group_name_H-M   'P 1'
_cell_length_a   4.61318146
_cell_length_b   4.61318146
_cell_length_c   4.61318146
_cell_angle_alpha   90.00000000
_cell_angle_beta   90.00000000
_cell_angle_gamma   90.00000000
_symmetry_Int_Tables_number   1
_chemical_formula_structural   BaCdN2O
_chemical_formula_sum   'Ba1 Cd1 N2 O1'
_cell_volume   98.17515910
_cell_formula_units_Z   1
loop_
 _symmetry_equiv_pos_site_id
 _symmetry_equiv_pos_as_xyz
  1  'x, y, z'
loop_
 _atom_site_type_symbol
 _atom_site_label
 _atom_site_symmetry_multiplicity
 _atom_site_fract_x
 _atom_site_fract_y
 _atom_site_fract_z
 _atom_site_occupancy
  Cd  Cd0  1  0.99999072  0.00000000  0.00000000  1
  Ba  Ba1  1  0.50416020  0.50000000  0.50000000  1
  N  N2  1  0.50274720  0.00000000  0.50000000  1
  N  N3  1  0.50274720  0.50000000  0.00000000  1
  O  O4  1  0.00397643  0.50000000  0.50000000  1
