# generated using pymatgen
data_As2O2F
_symmetry_space_group_name_H-M   'P 1'
_cell_length_a   4.27391710
_cell_length_b   4.27391710
_cell_length_c   4.27391710
_cell_angle_alpha   90.00000000
_cell_angle_beta   90.00000000
_cell_angle_gamma   90.00000000
_symmetry_Int_Tables_number   1
_chemical_formula_structural   As2O2F
_chemical_formula_sum   'As2 O2 F1'
_cell_volume   78.06893999
_cell_formula_units_Z   1
loop_
 _symmetry_equiv_pos_site_id
 _symmetry_equiv_pos_as_xyz
  1  'x, y, z'
loop_
 _atom_site_type_symbol
 _atom_site_label
 _atom_site_symmetry_multiplicity
 _atom_site_fract_x
 _atom_site_fract_y
 _atom_site_fract_z
 _atom_site_occupancy
  As  As0  1  0.17116843  0.00000000  0.00000000  1
  As  As1  1  0.54406497  0.50000000  0.50000000  1
  F  F2  1  0.46914586  0.00000000  0.50000000  1
  O  O3  1  0.39329045  0.50000000  0.00000000  1
  O  O4  1  0.95960700  0.50000000  0.50000000  1
