# generated using pymatgen
data_CaLaSO2
_symmetry_space_group_name_H-M   'P 1'
_cell_length_a   4.93932707
_cell_length_b   4.93932707
_cell_length_c   4.93932707
_cell_angle_alpha   90.00000000
_cell_angle_beta   90.00000000
_cell_angle_gamma   90.00000000
_symmetry_Int_Tables_number   1
_chemical_formula_structural   CaLaSO2
_chemical_formula_sum   'Ca1 La1 S1 O2'
_cell_volume   120.50452484
_cell_formula_units_Z   1
loop_
 _symmetry_equiv_pos_site_id
 _symmetry_equiv_pos_as_xyz
  1  'x, y, z'
loop_
 _atom_site_type_symbol
 _atom_site_label
 _atom_site_symmetry_multiplicity
 _atom_site_fract_x
 _atom_site_fract_y
 _atom_site_fract_z
 _atom_site_occupancy
  Ca  Ca0  1  0.09333959  1.00000000  0.00000000  1
  La  La1  1  0.56244653  0.50000000  0.50000000  1
  S  S2  1  0.27731639  0.00000000  0.50000000  1
  O  O3  1  0.58016316  0.50000000  0.00000000  1
  O  O4  1  0.06599121  0.50000000  0.50000000  1
