# generated using pymatgen
data_ScRuN3
_symmetry_space_group_name_H-M   'P 1'
_cell_length_a   4.05816441
_cell_length_b   4.05816441
_cell_length_c   4.05816441
_cell_angle_alpha   90.00000000
_cell_angle_beta   90.00000000
_cell_angle_gamma   90.00000000
_symmetry_Int_Tables_number   1
_chemical_formula_structural   ScRuN3
_chemical_formula_sum   'Sc1 Ru1 N3'
_cell_volume   66.83268553
_cell_formula_units_Z   1
loop_
 _symmetry_equiv_pos_site_id
 _symmetry_equiv_pos_as_xyz
  1  'x, y, z'
loop_
 _atom_site_type_symbol
 _atom_site_label
 _atom_site_symmetry_multiplicity
 _atom_site_fract_x
 _atom_site_fract_y
 _atom_site_fract_z
 _atom_site_occupancy
  Ru  Ru0  1  0.11366217  1.00000000  0.00000000  1
  Sc  Sc1  1  0.86686168  0.50000000  0.50000000  1
  N  N2  1  0.10651212  0.00000000  0.50000000  1
  N  N3  1  0.10651212  0.50000000  0.00000000  1
  N  N4  1  0.35907162  0.50000000  0.50000000  1
