# generated using pymatgen
data_CoSnN3
_symmetry_space_group_name_H-M   'P 1'
_cell_length_a   4.09258197
_cell_length_b   4.09258197
_cell_length_c   4.09258197
_cell_angle_alpha   90.00000000
_cell_angle_beta   90.00000000
_cell_angle_gamma   90.00000000
_symmetry_Int_Tables_number   1
_chemical_formula_structural   CoSnN3
_chemical_formula_sum   'Co1 Sn1 N3'
_cell_volume   68.54758504
_cell_formula_units_Z   1
loop_
 _symmetry_equiv_pos_site_id
 _symmetry_equiv_pos_as_xyz
  1  'x, y, z'
loop_
 _atom_site_type_symbol
 _atom_site_label
 _atom_site_symmetry_multiplicity
 _atom_site_fract_x
 _atom_site_fract_y
 _atom_site_fract_z
 _atom_site_occupancy
  Co  Co0  1  0.33448998  0.00000000  1.00000000  1
  Sn  Sn1  1  0.52577380  0.50000000  0.50000000  1
  N  N2  1  0.36753294  0.00000000  0.50000000  1
  N  N3  1  0.36753294  0.50000000  0.00000000  1
  N  N4  1  0.01227409  0.50000000  0.50000000  1
