# generated using pymatgen
data_TaCrNO2
_symmetry_space_group_name_H-M   'P 1'
_cell_length_a   4.10204637
_cell_length_b   4.10204637
_cell_length_c   4.10204637
_cell_angle_alpha   90.00000000
_cell_angle_beta   90.00000000
_cell_angle_gamma   90.00000000
_symmetry_Int_Tables_number   1
_chemical_formula_structural   TaCrNO2
_chemical_formula_sum   'Ta1 Cr1 N1 O2'
_cell_volume   69.02425001
_cell_formula_units_Z   1
loop_
 _symmetry_equiv_pos_site_id
 _symmetry_equiv_pos_as_xyz
  1  'x, y, z'
loop_
 _atom_site_type_symbol
 _atom_site_label
 _atom_site_symmetry_multiplicity
 _atom_site_fract_x
 _atom_site_fract_y
 _atom_site_fract_z
 _atom_site_occupancy
  Cr  Cr0  1  0.29200388  1.00000000  1.00000000  1
  Ta  Ta1  1  0.45021642  0.50000000  0.50000000  1
  N  N2  1  0.36000409  0.00000000  0.50000000  1
  O  O3  1  0.38148633  0.50000000  0.00000000  1
  O  O4  1  0.91695583  0.50000000  0.50000000  1
