# generated using pymatgen
data_SiAsNOF
_symmetry_space_group_name_H-M   'P 1'
_cell_length_a   4.09216218
_cell_length_b   4.09216218
_cell_length_c   4.09216218
_cell_angle_alpha   90.00000000
_cell_angle_beta   90.00000000
_cell_angle_gamma   90.00000000
_symmetry_Int_Tables_number   1
_chemical_formula_structural   SiAsNOF
_chemical_formula_sum   'Si1 As1 N1 O1 F1'
_cell_volume   68.52649379
_cell_formula_units_Z   1
loop_
 _symmetry_equiv_pos_site_id
 _symmetry_equiv_pos_as_xyz
  1  'x, y, z'
loop_
 _atom_site_type_symbol
 _atom_site_label
 _atom_site_symmetry_multiplicity
 _atom_site_fract_x
 _atom_site_fract_y
 _atom_site_fract_z
 _atom_site_occupancy
  Si  Si0  1  0.14783263  0.00000000  0.00000000  1
  As  As1  1  0.54444866  0.50000000  0.50000000  1
  F  F2  1  0.41733901  0.00000000  0.50000000  1
  N  N3  1  0.41072212  0.50000000  0.00000000  1
  O  O4  1  0.96958046  0.50000000  0.50000000  1
