# generated using pymatgen
data_ScNbN3
_symmetry_space_group_name_H-M   'P 1'
_cell_length_a   4.06338939
_cell_length_b   4.06338939
_cell_length_c   4.06338939
_cell_angle_alpha   90.00000000
_cell_angle_beta   90.00000000
_cell_angle_gamma   90.00000000
_symmetry_Int_Tables_number   1
_chemical_formula_structural   ScNbN3
_chemical_formula_sum   'Sc1 Nb1 N3'
_cell_volume   67.09116409
_cell_formula_units_Z   1
loop_
 _symmetry_equiv_pos_site_id
 _symmetry_equiv_pos_as_xyz
  1  'x, y, z'
loop_
 _atom_site_type_symbol
 _atom_site_label
 _atom_site_symmetry_multiplicity
 _atom_site_fract_x
 _atom_site_fract_y
 _atom_site_fract_z
 _atom_site_occupancy
  Nb  Nb0  1  0.21373436  0.00000000  0.00000000  1
  Sc  Sc1  1  0.52709972  0.50000000  0.50000000  1
  N  N2  1  0.38461417  0.00000000  0.50000000  1
  N  N3  1  0.38461417  0.50000000  0.00000000  1
  N  N4  1  0.00325672  0.50000000  0.50000000  1
