# generated using pymatgen
data_SrNbN3
_symmetry_space_group_name_H-M   'P 1'
_cell_length_a   4.17837048
_cell_length_b   4.17837048
_cell_length_c   4.17837048
_cell_angle_alpha   90.00000000
_cell_angle_beta   90.00000000
_cell_angle_gamma   90.00000000
_symmetry_Int_Tables_number   1
_chemical_formula_structural   SrNbN3
_chemical_formula_sum   'Sr1 Nb1 N3'
_cell_volume   72.94925059
_cell_formula_units_Z   1
loop_
 _symmetry_equiv_pos_site_id
 _symmetry_equiv_pos_as_xyz
  1  'x, y, z'
loop_
 _atom_site_type_symbol
 _atom_site_label
 _atom_site_symmetry_multiplicity
 _atom_site_fract_x
 _atom_site_fract_y
 _atom_site_fract_z
 _atom_site_occupancy
  Sr  Sr0  1  0.01753839  0.00000000  0.00000000  1
  Nb  Nb1  1  0.51851450  0.50000000  0.50000000  1
  N  N2  1  0.48659501  0.00000000  0.50000000  1
  N  N3  1  0.48659501  0.50000000  0.00000000  1
  N  N4  1  0.99697916  0.50000000  0.50000000  1
