# generated using pymatgen
data_ReHgN2O
_symmetry_space_group_name_H-M   'P 1'
_cell_length_a   3.94687771
_cell_length_b   3.94687771
_cell_length_c   3.94687771
_cell_angle_alpha   90.00000000
_cell_angle_beta   90.00000000
_cell_angle_gamma   90.00000000
_symmetry_Int_Tables_number   1
_chemical_formula_structural   ReHgN2O
_chemical_formula_sum   'Re1 Hg1 N2 O1'
_cell_volume   61.48384372
_cell_formula_units_Z   1
loop_
 _symmetry_equiv_pos_site_id
 _symmetry_equiv_pos_as_xyz
  1  'x, y, z'
loop_
 _atom_site_type_symbol
 _atom_site_label
 _atom_site_symmetry_multiplicity
 _atom_site_fract_x
 _atom_site_fract_y
 _atom_site_fract_z
 _atom_site_occupancy
  Hg  Hg0  1  0.00068597  0.00000000  0.00000000  1
  Re  Re1  1  0.50255993  0.50000000  0.50000000  1
  N  N2  1  0.50217338  0.00000000  0.50000000  1
  N  N3  1  0.50217338  0.50000000  0.00000000  1
  O  O4  1  0.00269519  0.50000000  0.50000000  1
