# generated using pymatgen
data_GaNiNO2
_symmetry_space_group_name_H-M   'P 1'
_cell_length_a   3.79961076
_cell_length_b   3.79961076
_cell_length_c   3.79961076
_cell_angle_alpha   90.00000000
_cell_angle_beta   90.00000000
_cell_angle_gamma   90.00000000
_symmetry_Int_Tables_number   1
_chemical_formula_structural   GaNiNO2
_chemical_formula_sum   'Ga1 Ni1 N1 O2'
_cell_volume   54.85514001
_cell_formula_units_Z   1
loop_
 _symmetry_equiv_pos_site_id
 _symmetry_equiv_pos_as_xyz
  1  'x, y, z'
loop_
 _atom_site_type_symbol
 _atom_site_label
 _atom_site_symmetry_multiplicity
 _atom_site_fract_x
 _atom_site_fract_y
 _atom_site_fract_z
 _atom_site_occupancy
  Ga  Ga0  1  0.26370703  0.00000000  0.00000000  1
  Ni  Ni1  1  0.57608103  0.50000000  0.50000000  1
  N  N2  1  0.43440415  0.00000000  0.50000000  1
  O  O3  1  0.51094372  0.50000000  0.00000000  1
  O  O4  1  0.05054649  0.50000000  0.50000000  1
