# generated using pymatgen
data_BaCoN3
_symmetry_space_group_name_H-M   'P 1'
_cell_length_a   4.00537789
_cell_length_b   4.00537789
_cell_length_c   4.00537789
_cell_angle_alpha   90.00000000
_cell_angle_beta   90.00000000
_cell_angle_gamma   90.00000000
_symmetry_Int_Tables_number   1
_chemical_formula_structural   BaCoN3
_chemical_formula_sum   'Ba1 Co1 N3'
_cell_volume   64.25848604
_cell_formula_units_Z   1
loop_
 _symmetry_equiv_pos_site_id
 _symmetry_equiv_pos_as_xyz
  1  'x, y, z'
loop_
 _atom_site_type_symbol
 _atom_site_label
 _atom_site_symmetry_multiplicity
 _atom_site_fract_x
 _atom_site_fract_y
 _atom_site_fract_z
 _atom_site_occupancy
  Ba  Ba0  1  0.00392351  0.00000000  0.00000000  1
  Co  Co1  1  0.50797490  0.50000000  0.50000000  1
  N  N2  1  0.49986507  0.00000000  0.50000000  1
  N  N3  1  0.49986507  0.50000000  0.00000000  1
  N  N4  1  0.99949118  0.50000000  0.50000000  1
