# generated using pymatgen
data_RbInNOF
_symmetry_space_group_name_H-M   'P 1'
_cell_length_a   4.73911270
_cell_length_b   4.73911270
_cell_length_c   4.73911270
_cell_angle_alpha   90.00000000
_cell_angle_beta   90.00000000
_cell_angle_gamma   90.00000000
_symmetry_Int_Tables_number   1
_chemical_formula_structural   RbInNOF
_chemical_formula_sum   'Rb1 In1 N1 O1 F1'
_cell_volume   106.43662876
_cell_formula_units_Z   1
loop_
 _symmetry_equiv_pos_site_id
 _symmetry_equiv_pos_as_xyz
  1  'x, y, z'
loop_
 _atom_site_type_symbol
 _atom_site_label
 _atom_site_symmetry_multiplicity
 _atom_site_fract_x
 _atom_site_fract_y
 _atom_site_fract_z
 _atom_site_occupancy
  In  In0  1  0.82192153  0.00000000  0.00000000  1
  Rb  Rb1  1  0.42585495  0.50000000  0.50000000  1
  F  F2  1  0.62621231  0.00000000  0.50000000  1
  N  N3  1  0.89489115  0.50000000  0.00000000  1
  O  O4  1  0.93165567  0.50000000  0.50000000  1
