# generated using pymatgen
data_TlCoSO2
_symmetry_space_group_name_H-M   'P 1'
_cell_length_a   4.45042920
_cell_length_b   4.45042920
_cell_length_c   4.45042920
_cell_angle_alpha   90.00000000
_cell_angle_beta   90.00000000
_cell_angle_gamma   90.00000000
_symmetry_Int_Tables_number   1
_chemical_formula_structural   TlCoSO2
_chemical_formula_sum   'Tl1 Co1 S1 O2'
_cell_volume   88.14662544
_cell_formula_units_Z   1
loop_
 _symmetry_equiv_pos_site_id
 _symmetry_equiv_pos_as_xyz
  1  'x, y, z'
loop_
 _atom_site_type_symbol
 _atom_site_label
 _atom_site_symmetry_multiplicity
 _atom_site_fract_x
 _atom_site_fract_y
 _atom_site_fract_z
 _atom_site_occupancy
  Co  Co0  1  0.28528261  0.00000000  0.00000000  1
  Tl  Tl1  1  0.56562877  0.50000000  0.50000000  1
  S  S2  1  0.12832484  0.00000000  0.50000000  1
  O  O3  1  0.44899820  0.50000000  0.00000000  1
  O  O4  1  0.04608865  0.50000000  0.50000000  1
