# generated using pymatgen
data_CdWN2O
_symmetry_space_group_name_H-M   'P 1'
_cell_length_a   4.00219561
_cell_length_b   4.00219561
_cell_length_c   4.00219561
_cell_angle_alpha   90.00000000
_cell_angle_beta   90.00000000
_cell_angle_gamma   90.00000000
_symmetry_Int_Tables_number   1
_chemical_formula_structural   CdWN2O
_chemical_formula_sum   'Cd1 W1 N2 O1'
_cell_volume   64.10544728
_cell_formula_units_Z   1
loop_
 _symmetry_equiv_pos_site_id
 _symmetry_equiv_pos_as_xyz
  1  'x, y, z'
loop_
 _atom_site_type_symbol
 _atom_site_label
 _atom_site_symmetry_multiplicity
 _atom_site_fract_x
 _atom_site_fract_y
 _atom_site_fract_z
 _atom_site_occupancy
  Cd  Cd0  1  0.02239673  0.00000000  0.00000000  1
  W  W1  1  0.50610719  0.50000000  0.50000000  1
  N  N2  1  0.50414813  0.00000000  0.50000000  1
  N  N3  1  0.50414813  0.50000000  0.00000000  1
  O  O4  1  0.00476908  0.50000000  0.50000000  1
