# generated using pymatgen
data_KZrSO2
_symmetry_space_group_name_H-M   'P 1'
_cell_length_a   4.59553617
_cell_length_b   4.59553617
_cell_length_c   4.59553617
_cell_angle_alpha   90.00000000
_cell_angle_beta   90.00000000
_cell_angle_gamma   90.00000000
_symmetry_Int_Tables_number   1
_chemical_formula_structural   KZrSO2
_chemical_formula_sum   'K1 Zr1 S1 O2'
_cell_volume   97.05291081
_cell_formula_units_Z   1
loop_
 _symmetry_equiv_pos_site_id
 _symmetry_equiv_pos_as_xyz
  1  'x, y, z'
loop_
 _atom_site_type_symbol
 _atom_site_label
 _atom_site_symmetry_multiplicity
 _atom_site_fract_x
 _atom_site_fract_y
 _atom_site_fract_z
 _atom_site_occupancy
  Zr  Zr0  1  0.00039541  0.00000000  0.00000000  1
  K  K1  1  0.50628425  0.50000000  0.50000000  1
  S  S2  1  0.49934763  0.00000000  0.50000000  1
  O  O3  1  0.49994264  0.50000000  0.00000000  1
  O  O4  1  0.00444991  0.50000000  0.50000000  1
