# generated using pymatgen
data_CaNiN3
_symmetry_space_group_name_H-M   'P 1'
_cell_length_a   3.80652339
_cell_length_b   3.80652339
_cell_length_c   3.80652339
_cell_angle_alpha   90.00000000
_cell_angle_beta   90.00000000
_cell_angle_gamma   90.00000000
_symmetry_Int_Tables_number   1
_chemical_formula_structural   CaNiN3
_chemical_formula_sum   'Ca1 Ni1 N3'
_cell_volume   55.15507853
_cell_formula_units_Z   1
loop_
 _symmetry_equiv_pos_site_id
 _symmetry_equiv_pos_as_xyz
  1  'x, y, z'
loop_
 _atom_site_type_symbol
 _atom_site_label
 _atom_site_symmetry_multiplicity
 _atom_site_fract_x
 _atom_site_fract_y
 _atom_site_fract_z
 _atom_site_occupancy
  Ca  Ca0  1  0.00218012  0.00000000  0.00000000  1
  Ni  Ni1  1  0.56956484  0.50000000  0.50000000  1
  N  N2  1  0.45609840  0.00000000  0.50000000  1
  N  N3  1  0.45609840  0.50000000  0.00000000  1
  N  N4  1  0.02568550  0.50000000  0.50000000  1
