# generated using pymatgen
data_RhPbSO2
_symmetry_space_group_name_H-M   'P 1'
_cell_length_a   4.39217604
_cell_length_b   4.39217604
_cell_length_c   4.39217604
_cell_angle_alpha   90.00000000
_cell_angle_beta   90.00000000
_cell_angle_gamma   90.00000000
_symmetry_Int_Tables_number   1
_chemical_formula_structural   RhPbSO2
_chemical_formula_sum   'Rh1 Pb1 S1 O2'
_cell_volume   84.73039173
_cell_formula_units_Z   1
loop_
 _symmetry_equiv_pos_site_id
 _symmetry_equiv_pos_as_xyz
  1  'x, y, z'
loop_
 _atom_site_type_symbol
 _atom_site_label
 _atom_site_symmetry_multiplicity
 _atom_site_fract_x
 _atom_site_fract_y
 _atom_site_fract_z
 _atom_site_occupancy
  Pb  Pb0  1  0.06979422  0.00000000  0.00000000  1
  Rh  Rh1  1  0.54961096  0.50000000  0.50000000  1
  S  S2  1  0.44938157  0.00000000  0.50000000  1
  O  O3  1  0.43964330  0.50000000  0.00000000  1
  O  O4  1  0.99691562  0.50000000  0.50000000  1
