# generated using pymatgen
data_MgBiNO2
_symmetry_space_group_name_H-M   'P 1'
_cell_length_a   4.30299925
_cell_length_b   4.30299925
_cell_length_c   4.30299925
_cell_angle_alpha   90.00000000
_cell_angle_beta   90.00000000
_cell_angle_gamma   90.00000000
_symmetry_Int_Tables_number   1
_chemical_formula_structural   MgBiNO2
_chemical_formula_sum   'Mg1 Bi1 N1 O2'
_cell_volume   79.67348446
_cell_formula_units_Z   1
loop_
 _symmetry_equiv_pos_site_id
 _symmetry_equiv_pos_as_xyz
  1  'x, y, z'
loop_
 _atom_site_type_symbol
 _atom_site_label
 _atom_site_symmetry_multiplicity
 _atom_site_fract_x
 _atom_site_fract_y
 _atom_site_fract_z
 _atom_site_occupancy
  Mg  Mg0  1  0.23423228  0.00000000  1.00000000  1
  Bi  Bi1  1  0.49506732  0.50000000  0.50000000  1
  N  N2  1  0.35079959  0.00000000  0.50000000  1
  O  O3  1  0.37790738  0.50000000  0.00000000  1
  O  O4  1  0.97375508  0.50000000  0.50000000  1
