# generated using pymatgen
data_Y2O3
_symmetry_space_group_name_H-M   'P 1'
_cell_length_a   4.32676366
_cell_length_b   4.32676366
_cell_length_c   4.32676366
_cell_angle_alpha   90.00000000
_cell_angle_beta   90.00000000
_cell_angle_gamma   90.00000000
_symmetry_Int_Tables_number   1
_chemical_formula_structural   Y2O3
_chemical_formula_sum   'Y2 O3'
_cell_volume   81.00083936
_cell_formula_units_Z   1
loop_
 _symmetry_equiv_pos_site_id
 _symmetry_equiv_pos_as_xyz
  1  'x, y, z'
loop_
 _atom_site_type_symbol
 _atom_site_label
 _atom_site_symmetry_multiplicity
 _atom_site_fract_x
 _atom_site_fract_y
 _atom_site_fract_z
 _atom_site_occupancy
  Y  Y0  1  0.18418735  0.00000000  0.00000000  1
  Y  Y1  1  0.52504742  0.50000000  0.50000000  1
  O  O2  1  0.40769851  0.00000000  0.50000000  1
  O  O3  1  0.40769851  0.50000000  0.00000000  1
  O  O4  1  0.00295250  0.50000000  0.50000000  1
