# generated using pymatgen
data_CoReSO2
_symmetry_space_group_name_H-M   'P 1'
_cell_length_a   4.19117076
_cell_length_b   4.19117076
_cell_length_c   4.19117076
_cell_angle_alpha   90.00000000
_cell_angle_beta   90.00000000
_cell_angle_gamma   90.00000000
_symmetry_Int_Tables_number   1
_chemical_formula_structural   CoReSO2
_chemical_formula_sum   'Co1 Re1 S1 O2'
_cell_volume   73.62173829
_cell_formula_units_Z   1
loop_
 _symmetry_equiv_pos_site_id
 _symmetry_equiv_pos_as_xyz
  1  'x, y, z'
loop_
 _atom_site_type_symbol
 _atom_site_label
 _atom_site_symmetry_multiplicity
 _atom_site_fract_x
 _atom_site_fract_y
 _atom_site_fract_z
 _atom_site_occupancy
  Co  Co0  1  0.47052409  0.00000000  0.00000000  1
  Re  Re1  1  0.49026544  0.50000000  0.50000000  1
  S  S2  1  0.24840027  0.00000000  0.50000000  1
  O  O3  1  0.47926718  0.50000000  0.00000000  1
  O  O4  1  0.92033136  0.50000000  0.50000000  1
