# generated using pymatgen
data_TaOsN3
_symmetry_space_group_name_H-M   'P 1'
_cell_length_a   4.06272536
_cell_length_b   4.06272536
_cell_length_c   4.06272536
_cell_angle_alpha   90.00000000
_cell_angle_beta   90.00000000
_cell_angle_gamma   90.00000000
_symmetry_Int_Tables_number   1
_chemical_formula_structural   TaOsN3
_chemical_formula_sum   'Ta1 Os1 N3'
_cell_volume   67.05827785
_cell_formula_units_Z   1
loop_
 _symmetry_equiv_pos_site_id
 _symmetry_equiv_pos_as_xyz
  1  'x, y, z'
loop_
 _atom_site_type_symbol
 _atom_site_label
 _atom_site_symmetry_multiplicity
 _atom_site_fract_x
 _atom_site_fract_y
 _atom_site_fract_z
 _atom_site_occupancy
  Os  Os0  1  0.22312043  0.00000000  0.00000000  1
  Ta  Ta1  1  0.51159502  0.50000000  0.50000000  1
  N  N2  1  0.39245915  0.00000000  0.50000000  1
  N  N3  1  0.39245915  0.50000000  0.00000000  1
  N  N4  1  0.98447909  0.50000000  0.50000000  1
