# generated using pymatgen
data_CrCdO2F
_symmetry_space_group_name_H-M   'P 1'
_cell_length_a   4.28657882
_cell_length_b   4.28657882
_cell_length_c   4.28657882
_cell_angle_alpha   90.00000000
_cell_angle_beta   90.00000000
_cell_angle_gamma   90.00000000
_symmetry_Int_Tables_number   1
_chemical_formula_structural   CrCdO2F
_chemical_formula_sum   'Cr1 Cd1 O2 F1'
_cell_volume   78.76484859
_cell_formula_units_Z   1
loop_
 _symmetry_equiv_pos_site_id
 _symmetry_equiv_pos_as_xyz
  1  'x, y, z'
loop_
 _atom_site_type_symbol
 _atom_site_label
 _atom_site_symmetry_multiplicity
 _atom_site_fract_x
 _atom_site_fract_y
 _atom_site_fract_z
 _atom_site_occupancy
  Cr  Cr0  1  0.00159917  0.00000000  0.00000000  1
  Cd  Cd1  1  0.49969821  0.50000000  0.50000000  1
  F  F2  1  0.49999689  0.00000000  0.50000000  1
  O  O3  1  0.50062774  0.50000000  0.00000000  1
  O  O4  1  0.00036717  0.50000000  0.50000000  1
