# generated using pymatgen
data_MnCdN3
_symmetry_space_group_name_H-M   'P 1'
_cell_length_a   3.81497928
_cell_length_b   3.81497928
_cell_length_c   3.81497928
_cell_angle_alpha   90.00000000
_cell_angle_beta   90.00000000
_cell_angle_gamma   90.00000000
_symmetry_Int_Tables_number   1
_chemical_formula_structural   MnCdN3
_chemical_formula_sum   'Mn1 Cd1 N3'
_cell_volume   55.52346356
_cell_formula_units_Z   1
loop_
 _symmetry_equiv_pos_site_id
 _symmetry_equiv_pos_as_xyz
  1  'x, y, z'
loop_
 _atom_site_type_symbol
 _atom_site_label
 _atom_site_symmetry_multiplicity
 _atom_site_fract_x
 _atom_site_fract_y
 _atom_site_fract_z
 _atom_site_occupancy
  Cd  Cd0  1  0.03929180  0.00000000  0.00000000  1
  Mn  Mn1  1  0.56702436  0.50000000  0.50000000  1
  N  N2  1  0.44785208  0.00000000  0.50000000  1
  N  N3  1  0.44785208  0.50000000  0.00000000  1
  N  N4  1  0.98977439  0.50000000  0.50000000  1
