# generated using pymatgen
data_Ni2N3
_symmetry_space_group_name_H-M   'P 1'
_cell_length_a   3.70567114
_cell_length_b   3.70567114
_cell_length_c   3.70567114
_cell_angle_alpha   90.00000000
_cell_angle_beta   90.00000000
_cell_angle_gamma   90.00000000
_symmetry_Int_Tables_number   1
_chemical_formula_structural   Ni2N3
_chemical_formula_sum   'Ni2 N3'
_cell_volume   50.88627096
_cell_formula_units_Z   1
loop_
 _symmetry_equiv_pos_site_id
 _symmetry_equiv_pos_as_xyz
  1  'x, y, z'
loop_
 _atom_site_type_symbol
 _atom_site_label
 _atom_site_symmetry_multiplicity
 _atom_site_fract_x
 _atom_site_fract_y
 _atom_site_fract_z
 _atom_site_occupancy
  Ni  Ni0  1  0.32644087  0.00000000  0.00000000  1
  Ni  Ni1  1  0.54057252  0.50000000  0.50000000  1
  N  N2  1  0.31566330  0.00000000  0.50000000  1
  N  N3  1  0.31566330  0.50000000  0.00000000  1
  N  N4  1  0.01210091  0.50000000  0.50000000  1
