# generated using pymatgen
data_TiAlN3
_symmetry_space_group_name_H-M   'P 1'
_cell_length_a   3.89397246
_cell_length_b   3.89397246
_cell_length_c   3.89397246
_cell_angle_alpha   90.00000000
_cell_angle_beta   90.00000000
_cell_angle_gamma   90.00000000
_symmetry_Int_Tables_number   1
_chemical_formula_structural   TiAlN3
_chemical_formula_sum   'Ti1 Al1 N3'
_cell_volume   59.04438842
_cell_formula_units_Z   1
loop_
 _symmetry_equiv_pos_site_id
 _symmetry_equiv_pos_as_xyz
  1  'x, y, z'
loop_
 _atom_site_type_symbol
 _atom_site_label
 _atom_site_symmetry_multiplicity
 _atom_site_fract_x
 _atom_site_fract_y
 _atom_site_fract_z
 _atom_site_occupancy
  Al  Al0  1  0.00034943  0.00000000  0.00000000  1
  Ti  Ti1  1  0.50584833  0.50000000  0.50000000  1
  N  N2  1  0.49992470  0.00000000  0.50000000  1
  N  N3  1  0.49992470  0.50000000  0.00000000  1
  N  N4  1  0.00414928  0.50000000  0.50000000  1
