# generated using pymatgen
data_KFeO2F
_symmetry_space_group_name_H-M   'P 1'
_cell_length_a   4.58218424
_cell_length_b   4.58218424
_cell_length_c   4.58218424
_cell_angle_alpha   90.00000000
_cell_angle_beta   90.00000000
_cell_angle_gamma   90.00000000
_symmetry_Int_Tables_number   1
_chemical_formula_structural   KFeO2F
_chemical_formula_sum   'K1 Fe1 O2 F1'
_cell_volume   96.20943004
_cell_formula_units_Z   1
loop_
 _symmetry_equiv_pos_site_id
 _symmetry_equiv_pos_as_xyz
  1  'x, y, z'
loop_
 _atom_site_type_symbol
 _atom_site_label
 _atom_site_symmetry_multiplicity
 _atom_site_fract_x
 _atom_site_fract_y
 _atom_site_fract_z
 _atom_site_occupancy
  Fe  Fe0  1  0.00022254  0.00000000  0.00000000  1
  K  K1  1  0.50591227  0.50000000  0.50000000  1
  F  F2  1  0.49956888  0.00000000  0.50000000  1
  O  O3  1  0.49997554  0.50000000  0.00000000  1
  O  O4  1  0.00497109  0.50000000  0.50000000  1
