# generated using pymatgen
data_AlGeSO2
_symmetry_space_group_name_H-M   'P 1'
_cell_length_a   4.25356765
_cell_length_b   4.25356765
_cell_length_c   4.25356765
_cell_angle_alpha   90.00000000
_cell_angle_beta   90.00000000
_cell_angle_gamma   90.00000000
_symmetry_Int_Tables_number   1
_chemical_formula_structural   AlGeSO2
_chemical_formula_sum   'Al1 Ge1 S1 O2'
_cell_volume   76.95910926
_cell_formula_units_Z   1
loop_
 _symmetry_equiv_pos_site_id
 _symmetry_equiv_pos_as_xyz
  1  'x, y, z'
loop_
 _atom_site_type_symbol
 _atom_site_label
 _atom_site_symmetry_multiplicity
 _atom_site_fract_x
 _atom_site_fract_y
 _atom_site_fract_z
 _atom_site_occupancy
  Al  Al0  1  0.17217164  0.00000000  0.00000000  1
  Ge  Ge1  1  0.56789756  0.50000000  0.50000000  1
  S  S2  1  0.38363086  0.00000000  0.50000000  1
  O  O3  1  0.41121781  0.50000000  0.00000000  1
  O  O4  1  0.98610509  0.50000000  0.50000000  1
