# generated using pymatgen
data_CsWO2F
_symmetry_space_group_name_H-M   'P 1'
_cell_length_a   4.77877455
_cell_length_b   4.77877455
_cell_length_c   4.77877455
_cell_angle_alpha   90.00000000
_cell_angle_beta   90.00000000
_cell_angle_gamma   90.00000000
_symmetry_Int_Tables_number   1
_chemical_formula_structural   CsWO2F
_chemical_formula_sum   'Cs1 W1 O2 F1'
_cell_volume   109.13137506
_cell_formula_units_Z   1
loop_
 _symmetry_equiv_pos_site_id
 _symmetry_equiv_pos_as_xyz
  1  'x, y, z'
loop_
 _atom_site_type_symbol
 _atom_site_label
 _atom_site_symmetry_multiplicity
 _atom_site_fract_x
 _atom_site_fract_y
 _atom_site_fract_z
 _atom_site_occupancy
  W  W0  1  0.00059469  0.00000000  0.00000000  1
  Cs  Cs1  1  0.50474483  0.50000000  0.50000000  1
  F  F2  1  0.49925925  0.00000000  0.50000000  1
  O  O3  1  0.50038054  0.50000000  0.00000000  1
  O  O4  1  0.00472537  0.50000000  0.50000000  1
