# generated using pymatgen
data_CrGeN3
_symmetry_space_group_name_H-M   'P 1'
_cell_length_a   3.83334060
_cell_length_b   3.83334060
_cell_length_c   3.83334060
_cell_angle_alpha   90.00000000
_cell_angle_beta   90.00000000
_cell_angle_gamma   90.00000000
_symmetry_Int_Tables_number   1
_chemical_formula_structural   CrGeN3
_chemical_formula_sum   'Cr1 Ge1 N3'
_cell_volume   56.32902401
_cell_formula_units_Z   1
loop_
 _symmetry_equiv_pos_site_id
 _symmetry_equiv_pos_as_xyz
  1  'x, y, z'
loop_
 _atom_site_type_symbol
 _atom_site_label
 _atom_site_symmetry_multiplicity
 _atom_site_fract_x
 _atom_site_fract_y
 _atom_site_fract_z
 _atom_site_occupancy
  Cr  Cr0  1  0.94442394  0.00000000  0.00000000  1
  Ge  Ge1  1  0.26557160  0.50000000  0.50000000  1
  N  N2  1  0.16913550  0.00000000  0.50000000  1
  N  N3  1  0.16913550  0.50000000  0.00000000  1
  N  N4  1  0.74776215  0.50000000  0.50000000  1
