# generated using pymatgen
data_LiVNO2
_symmetry_space_group_name_H-M   'P 1'
_cell_length_a   3.85124480
_cell_length_b   3.85124480
_cell_length_c   3.85124480
_cell_angle_alpha   90.00000000
_cell_angle_beta   90.00000000
_cell_angle_gamma   90.00000000
_symmetry_Int_Tables_number   1
_chemical_formula_structural   LiVNO2
_chemical_formula_sum   'Li1 V1 N1 O2'
_cell_volume   57.12199625
_cell_formula_units_Z   1
loop_
 _symmetry_equiv_pos_site_id
 _symmetry_equiv_pos_as_xyz
  1  'x, y, z'
loop_
 _atom_site_type_symbol
 _atom_site_label
 _atom_site_symmetry_multiplicity
 _atom_site_fract_x
 _atom_site_fract_y
 _atom_site_fract_z
 _atom_site_occupancy
  Li  Li0  1  0.16438918  0.00000000  0.00000000  1
  V  V1  1  0.47873438  0.50000000  0.50000000  1
  N  N2  1  0.41059715  0.00000000  0.50000000  1
  O  O3  1  0.41199365  0.50000000  0.00000000  1
  O  O4  1  0.93488628  0.50000000  0.50000000  1
