# generated using pymatgen
data_ZnNiN3
_symmetry_space_group_name_H-M   'P 1'
_cell_length_a   3.79031511
_cell_length_b   3.79031511
_cell_length_c   3.79031511
_cell_angle_alpha   90.00000000
_cell_angle_beta   90.00000000
_cell_angle_gamma   90.00000000
_symmetry_Int_Tables_number   1
_chemical_formula_structural   ZnNiN3
_chemical_formula_sum   'Zn1 Ni1 N3'
_cell_volume   54.45351898
_cell_formula_units_Z   1
loop_
 _symmetry_equiv_pos_site_id
 _symmetry_equiv_pos_as_xyz
  1  'x, y, z'
loop_
 _atom_site_type_symbol
 _atom_site_label
 _atom_site_symmetry_multiplicity
 _atom_site_fract_x
 _atom_site_fract_y
 _atom_site_fract_z
 _atom_site_occupancy
  Zn  Zn0  1  0.19952179  0.00000000  0.00000000  1
  Ni  Ni1  1  0.53792091  0.50000000  0.50000000  1
  N  N2  1  0.38526437  0.00000000  0.50000000  1
  N  N3  1  0.38526437  0.50000000  0.00000000  1
  N  N4  1  0.99141919  0.50000000  0.50000000  1
