# generated using pymatgen
data_CaAgO3
_symmetry_space_group_name_H-M   'P 1'
_cell_length_a   4.11428664
_cell_length_b   4.11428664
_cell_length_c   4.11428664
_cell_angle_alpha   90.00000000
_cell_angle_beta   90.00000000
_cell_angle_gamma   90.00000000
_symmetry_Int_Tables_number   1
_chemical_formula_structural   CaAgO3
_chemical_formula_sum   'Ca1 Ag1 O3'
_cell_volume   69.64398876
_cell_formula_units_Z   1
loop_
 _symmetry_equiv_pos_site_id
 _symmetry_equiv_pos_as_xyz
  1  'x, y, z'
loop_
 _atom_site_type_symbol
 _atom_site_label
 _atom_site_symmetry_multiplicity
 _atom_site_fract_x
 _atom_site_fract_y
 _atom_site_fract_z
 _atom_site_occupancy
  Ca  Ca0  1  0.19240316  0.00000000  0.00000000  1
  Ag  Ag1  1  0.61009939  0.50000000  0.50000000  1
  O  O2  1  0.53369168  1.00000000  0.50000000  1
  O  O3  1  0.53369168  0.50000000  0.00000000  1
  O  O4  1  0.10308933  0.50000000  0.50000000  1
