# generated using pymatgen
data_TaCrN2O
_symmetry_space_group_name_H-M   'P 1'
_cell_length_a   4.09832964
_cell_length_b   4.09832964
_cell_length_c   4.09832964
_cell_angle_alpha   90.00000000
_cell_angle_beta   90.00000000
_cell_angle_gamma   90.00000000
_symmetry_Int_Tables_number   1
_chemical_formula_structural   TaCrN2O
_chemical_formula_sum   'Ta1 Cr1 N2 O1'
_cell_volume   68.83679804
_cell_formula_units_Z   1
loop_
 _symmetry_equiv_pos_site_id
 _symmetry_equiv_pos_as_xyz
  1  'x, y, z'
loop_
 _atom_site_type_symbol
 _atom_site_label
 _atom_site_symmetry_multiplicity
 _atom_site_fract_x
 _atom_site_fract_y
 _atom_site_fract_z
 _atom_site_occupancy
  Cr  Cr0  1  0.41963793  0.00000000  0.00000000  1
  Ta  Ta1  1  0.51482436  0.50000000  0.50000000  1
  N  N2  1  0.43072004  0.00000000  0.50000000  1
  N  N3  1  0.43072004  0.50000000  0.00000000  1
  O  O4  1  0.97972605  0.50000000  0.50000000  1
