# generated using pymatgen
data_TiSiNO2
_symmetry_space_group_name_H-M   'P 1'
_cell_length_a   3.91194349
_cell_length_b   3.91194349
_cell_length_c   3.91194349
_cell_angle_alpha   90.00000000
_cell_angle_beta   90.00000000
_cell_angle_gamma   90.00000000
_symmetry_Int_Tables_number   1
_chemical_formula_structural   TiSiNO2
_chemical_formula_sum   'Ti1 Si1 N1 O2'
_cell_volume   59.86565200
_cell_formula_units_Z   1
loop_
 _symmetry_equiv_pos_site_id
 _symmetry_equiv_pos_as_xyz
  1  'x, y, z'
loop_
 _atom_site_type_symbol
 _atom_site_label
 _atom_site_symmetry_multiplicity
 _atom_site_fract_x
 _atom_site_fract_y
 _atom_site_fract_z
 _atom_site_occupancy
  Si  Si0  1  0.26364611  0.00000000  0.00000000  1
  Ti  Ti1  1  0.53172525  0.50000000  0.50000000  1
  N  N2  1  0.39903463  0.00000000  0.50000000  1
  O  O3  1  0.40792847  0.50000000  0.00000000  1
  O  O4  1  0.96470850  0.50000000  0.50000000  1
