# generated using pymatgen
data_ScTiNO2
_symmetry_space_group_name_H-M   'P 1'
_cell_length_a   3.95691774
_cell_length_b   3.95691774
_cell_length_c   3.95691774
_cell_angle_alpha   90.00000000
_cell_angle_beta   90.00000000
_cell_angle_gamma   90.00000000
_symmetry_Int_Tables_number   1
_chemical_formula_structural   ScTiNO2
_chemical_formula_sum   'Sc1 Ti1 N1 O2'
_cell_volume   61.95424430
_cell_formula_units_Z   1
loop_
 _symmetry_equiv_pos_site_id
 _symmetry_equiv_pos_as_xyz
  1  'x, y, z'
loop_
 _atom_site_type_symbol
 _atom_site_label
 _atom_site_symmetry_multiplicity
 _atom_site_fract_x
 _atom_site_fract_y
 _atom_site_fract_z
 _atom_site_occupancy
  Ti  Ti0  1  0.00052461  0.00000000  0.00000000  1
  Sc  Sc1  1  0.50566247  0.50000000  0.50000000  1
  N  N2  1  0.49952695  0.00000000  0.50000000  1
  O  O3  1  0.49986187  0.50000000  0.00000000  1
  O  O4  1  0.00436303  0.50000000  0.50000000  1
