# generated using pymatgen
data_ZnBNO2
_symmetry_space_group_name_H-M   'P 1'
_cell_length_a   3.67649837
_cell_length_b   3.67649837
_cell_length_c   3.67649837
_cell_angle_alpha   90.00000000
_cell_angle_beta   90.00000000
_cell_angle_gamma   90.00000000
_symmetry_Int_Tables_number   1
_chemical_formula_structural   ZnBNO2
_chemical_formula_sum   'Zn1 B1 N1 O2'
_cell_volume   49.69390607
_cell_formula_units_Z   1
loop_
 _symmetry_equiv_pos_site_id
 _symmetry_equiv_pos_as_xyz
  1  'x, y, z'
loop_
 _atom_site_type_symbol
 _atom_site_label
 _atom_site_symmetry_multiplicity
 _atom_site_fract_x
 _atom_site_fract_y
 _atom_site_fract_z
 _atom_site_occupancy
  B  B0  1  0.28054020  0.00000000  0.00000000  1
  Zn  Zn1  1  0.55496530  0.50000000  0.50000000  1
  N  N2  1  0.18394572  0.00000000  0.50000000  1
  O  O3  1  0.43937573  0.50000000  0.00000000  1
  O  O4  1  0.04220473  0.50000000  0.50000000  1
