# generated using pymatgen
data_GaBiN2O
_symmetry_space_group_name_H-M   'P 1'
_cell_length_a   4.07121095
_cell_length_b   4.07121095
_cell_length_c   4.07121095
_cell_angle_alpha   90.00000000
_cell_angle_beta   90.00000000
_cell_angle_gamma   90.00000000
_symmetry_Int_Tables_number   1
_chemical_formula_structural   GaBiN2O
_chemical_formula_sum   'Ga1 Bi1 N2 O1'
_cell_volume   67.47933859
_cell_formula_units_Z   1
loop_
 _symmetry_equiv_pos_site_id
 _symmetry_equiv_pos_as_xyz
  1  'x, y, z'
loop_
 _atom_site_type_symbol
 _atom_site_label
 _atom_site_symmetry_multiplicity
 _atom_site_fract_x
 _atom_site_fract_y
 _atom_site_fract_z
 _atom_site_occupancy
  Bi  Bi0  1  0.18596951  0.00000000  0.00000000  1
  Ga  Ga1  1  0.58960708  0.50000000  0.50000000  1
  N  N2  1  0.50389879  0.00000000  0.50000000  1
  N  N3  1  0.50389879  0.50000000  0.00000000  1
  O  O4  1  0.06837736  0.50000000  0.50000000  1
