# generated using pymatgen
data_VInO3
_symmetry_space_group_name_H-M   'P 1'
_cell_length_a   4.16192481
_cell_length_b   4.16192481
_cell_length_c   4.16192481
_cell_angle_alpha   90.00000000
_cell_angle_beta   90.00000000
_cell_angle_gamma   90.00000000
_symmetry_Int_Tables_number   1
_chemical_formula_structural   VInO3
_chemical_formula_sum   'V1 In1 O3'
_cell_volume   72.09127209
_cell_formula_units_Z   1
loop_
 _symmetry_equiv_pos_site_id
 _symmetry_equiv_pos_as_xyz
  1  'x, y, z'
loop_
 _atom_site_type_symbol
 _atom_site_label
 _atom_site_symmetry_multiplicity
 _atom_site_fract_x
 _atom_site_fract_y
 _atom_site_fract_z
 _atom_site_occupancy
  V  V0  1  0.27641149  0.00000000  0.00000000  1
  In  In1  1  0.55310100  0.50000000  0.50000000  1
  O  O2  1  0.41417011  0.00000000  0.50000000  1
  O  O3  1  0.41417011  0.50000000  0.00000000  1
  O  O4  1  0.03111900  0.50000000  0.50000000  1
