# generated using pymatgen
data_BPtNOF
_symmetry_space_group_name_H-M   'P 1'
_cell_length_a   4.07259892
_cell_length_b   4.07259892
_cell_length_c   4.07259892
_cell_angle_alpha   90.00000000
_cell_angle_beta   90.00000000
_cell_angle_gamma   90.00000000
_symmetry_Int_Tables_number   1
_chemical_formula_structural   BPtNOF
_chemical_formula_sum   'B1 Pt1 N1 O1 F1'
_cell_volume   67.54837809
_cell_formula_units_Z   1
loop_
 _symmetry_equiv_pos_site_id
 _symmetry_equiv_pos_as_xyz
  1  'x, y, z'
loop_
 _atom_site_type_symbol
 _atom_site_label
 _atom_site_symmetry_multiplicity
 _atom_site_fract_x
 _atom_site_fract_y
 _atom_site_fract_z
 _atom_site_occupancy
  B  B0  1  0.00065751  0.00000000  0.00000000  1
  Pt  Pt1  1  0.50743942  0.50000000  0.50000000  1
  F  F2  1  0.50026101  0.00000000  0.50000000  1
  N  N3  1  0.49852916  0.50000000  0.00000000  1
  O  O4  1  0.00476862  0.50000000  0.50000000  1
