# generated using pymatgen
data_VPdN2O
_symmetry_space_group_name_H-M   'P 1'
_cell_length_a   3.98268422
_cell_length_b   3.98268422
_cell_length_c   3.98268422
_cell_angle_alpha   90.00000000
_cell_angle_beta   90.00000000
_cell_angle_gamma   90.00000000
_symmetry_Int_Tables_number   1
_chemical_formula_structural   VPdN2O
_chemical_formula_sum   'V1 Pd1 N2 O1'
_cell_volume   63.17243526
_cell_formula_units_Z   1
loop_
 _symmetry_equiv_pos_site_id
 _symmetry_equiv_pos_as_xyz
  1  'x, y, z'
loop_
 _atom_site_type_symbol
 _atom_site_label
 _atom_site_symmetry_multiplicity
 _atom_site_fract_x
 _atom_site_fract_y
 _atom_site_fract_z
 _atom_site_occupancy
  V  V0  1  0.27754872  0.00000000  0.00000000  1
  Pd  Pd1  1  0.55262608  0.50000000  0.50000000  1
  N  N2  1  0.41701646  0.00000000  0.50000000  1
  N  N3  1  0.41701646  0.50000000  0.00000000  1
  O  O4  1  0.03607214  0.50000000  0.50000000  1
