# generated using pymatgen
data_SrLaNO2
_symmetry_space_group_name_H-M   'P 1'
_cell_length_a   4.58695658
_cell_length_b   4.58695658
_cell_length_c   4.58695658
_cell_angle_alpha   90.00000000
_cell_angle_beta   90.00000000
_cell_angle_gamma   90.00000000
_symmetry_Int_Tables_number   1
_chemical_formula_structural   SrLaNO2
_chemical_formula_sum   'Sr1 La1 N1 O2'
_cell_volume   96.51034952
_cell_formula_units_Z   1
loop_
 _symmetry_equiv_pos_site_id
 _symmetry_equiv_pos_as_xyz
  1  'x, y, z'
loop_
 _atom_site_type_symbol
 _atom_site_label
 _atom_site_symmetry_multiplicity
 _atom_site_fract_x
 _atom_site_fract_y
 _atom_site_fract_z
 _atom_site_occupancy
  La  La0  1  0.14334861  1.00000000  0.00000000  1
  Sr  Sr1  1  0.54340919  0.50000000  0.50000000  1
  N  N2  1  0.40844647  0.00000000  0.50000000  1
  O  O3  1  0.37821308  0.50000000  0.00000000  1
  O  O4  1  0.03436514  0.50000000  0.50000000  1
