# generated using pymatgen
data_RbCrO3
_symmetry_space_group_name_H-M   'P 1'
_cell_length_a   3.90690456
_cell_length_b   3.90690456
_cell_length_c   3.90690456
_cell_angle_alpha   90.00000000
_cell_angle_beta   90.00000000
_cell_angle_gamma   90.00000000
_symmetry_Int_Tables_number   1
_chemical_formula_structural   RbCrO3
_chemical_formula_sum   'Rb1 Cr1 O3'
_cell_volume   59.63461311
_cell_formula_units_Z   1
loop_
 _symmetry_equiv_pos_site_id
 _symmetry_equiv_pos_as_xyz
  1  'x, y, z'
loop_
 _atom_site_type_symbol
 _atom_site_label
 _atom_site_symmetry_multiplicity
 _atom_site_fract_x
 _atom_site_fract_y
 _atom_site_fract_z
 _atom_site_occupancy
  Rb  Rb0  1  0.00571349  0.00000000  0.00000000  1
  Cr  Cr1  1  0.53181548  0.50000000  0.50000000  1
  O  O2  1  0.49552941  0.00000000  0.50000000  1
  O  O3  1  0.49552941  0.50000000  0.00000000  1
  O  O4  1  0.97976598  0.50000000  0.50000000  1
