# generated using pymatgen
data_CrReSO2
_symmetry_space_group_name_H-M   'P 1'
_cell_length_a   4.21412356
_cell_length_b   4.21412356
_cell_length_c   4.21412356
_cell_angle_alpha   90.00000000
_cell_angle_beta   90.00000000
_cell_angle_gamma   90.00000000
_symmetry_Int_Tables_number   1
_chemical_formula_structural   CrReSO2
_chemical_formula_sum   'Cr1 Re1 S1 O2'
_cell_volume   74.83793505
_cell_formula_units_Z   1
loop_
 _symmetry_equiv_pos_site_id
 _symmetry_equiv_pos_as_xyz
  1  'x, y, z'
loop_
 _atom_site_type_symbol
 _atom_site_label
 _atom_site_symmetry_multiplicity
 _atom_site_fract_x
 _atom_site_fract_y
 _atom_site_fract_z
 _atom_site_occupancy
  Cr  Cr0  1  0.68858032  0.00000000  0.00000000  1
  Re  Re1  1  0.65626440  0.50000000  0.50000000  1
  S  S2  1  0.41138908  0.00000000  0.50000000  1
  O  O3  1  0.65095036  0.50000000  0.00000000  1
  O  O4  1  0.09777432  0.50000000  0.50000000  1
