# generated using pymatgen
data_ScAgO2F
_symmetry_space_group_name_H-M   'P 1'
_cell_length_a   4.20401412
_cell_length_b   4.20401412
_cell_length_c   4.20401412
_cell_angle_alpha   90.00000000
_cell_angle_beta   90.00000000
_cell_angle_gamma   90.00000000
_symmetry_Int_Tables_number   1
_chemical_formula_structural   ScAgO2F
_chemical_formula_sum   'Sc1 Ag1 O2 F1'
_cell_volume   74.30063056
_cell_formula_units_Z   1
loop_
 _symmetry_equiv_pos_site_id
 _symmetry_equiv_pos_as_xyz
  1  'x, y, z'
loop_
 _atom_site_type_symbol
 _atom_site_label
 _atom_site_symmetry_multiplicity
 _atom_site_fract_x
 _atom_site_fract_y
 _atom_site_fract_z
 _atom_site_occupancy
  Sc  Sc0  1  0.00029510  0.00000000  0.00000000  1
  Ag  Ag1  1  0.50525973  0.50000000  0.50000000  1
  F  F2  1  0.49965880  0.00000000  0.50000000  1
  O  O3  1  0.50031169  0.50000000  0.00000000  1
  O  O4  1  0.00481879  0.50000000  0.50000000  1
