# generated using pymatgen
data_GaCoSO2
_symmetry_space_group_name_H-M   'P 1'
_cell_length_a   3.99327116
_cell_length_b   3.99327116
_cell_length_c   3.99327116
_cell_angle_alpha   90.00000000
_cell_angle_beta   90.00000000
_cell_angle_gamma   90.00000000
_symmetry_Int_Tables_number   1
_chemical_formula_structural   GaCoSO2
_chemical_formula_sum   'Ga1 Co1 S1 O2'
_cell_volume   63.67755852
_cell_formula_units_Z   1
loop_
 _symmetry_equiv_pos_site_id
 _symmetry_equiv_pos_as_xyz
  1  'x, y, z'
loop_
 _atom_site_type_symbol
 _atom_site_label
 _atom_site_symmetry_multiplicity
 _atom_site_fract_x
 _atom_site_fract_y
 _atom_site_fract_z
 _atom_site_occupancy
  Ga  Ga0  1  0.86909385  1.00000000  0.00000000  1
  Co  Co1  1  0.53107820  0.50000000  0.50000000  1
  S  S2  1  0.27075660  0.00000000  0.50000000  1
  O  O3  1  0.62967537  0.50000000  0.00000000  1
  O  O4  1  0.01305547  0.50000000  0.50000000  1
