# generated using pymatgen
data_HfFeO3
_symmetry_space_group_name_H-M   'P 1'
_cell_length_a   4.09516655
_cell_length_b   4.09516655
_cell_length_c   4.09516655
_cell_angle_alpha   90.00000000
_cell_angle_beta   90.00000000
_cell_angle_gamma   90.00000000
_symmetry_Int_Tables_number   1
_chemical_formula_structural   HfFeO3
_chemical_formula_sum   'Hf1 Fe1 O3'
_cell_volume   68.67753612
_cell_formula_units_Z   1
loop_
 _symmetry_equiv_pos_site_id
 _symmetry_equiv_pos_as_xyz
  1  'x, y, z'
loop_
 _atom_site_type_symbol
 _atom_site_label
 _atom_site_symmetry_multiplicity
 _atom_site_fract_x
 _atom_site_fract_y
 _atom_site_fract_z
 _atom_site_occupancy
  Fe  Fe0  1  0.00030695  0.00000000  0.00000000  1
  Hf  Hf1  1  0.50578294  0.50000000  0.50000000  1
  O  O2  1  0.49972211  0.00000000  0.50000000  1
  O  O3  1  0.49972211  0.50000000  0.00000000  1
  O  O4  1  0.00448889  0.50000000  0.50000000  1
