# generated using pymatgen
data_AlReO2F
_symmetry_space_group_name_H-M   'P 1'
_cell_length_a   3.83067370
_cell_length_b   3.83067370
_cell_length_c   3.83067370
_cell_angle_alpha   90.00000000
_cell_angle_beta   90.00000000
_cell_angle_gamma   90.00000000
_symmetry_Int_Tables_number   1
_chemical_formula_structural   AlReO2F
_chemical_formula_sum   'Al1 Re1 O2 F1'
_cell_volume   56.21153935
_cell_formula_units_Z   1
loop_
 _symmetry_equiv_pos_site_id
 _symmetry_equiv_pos_as_xyz
  1  'x, y, z'
loop_
 _atom_site_type_symbol
 _atom_site_label
 _atom_site_symmetry_multiplicity
 _atom_site_fract_x
 _atom_site_fract_y
 _atom_site_fract_z
 _atom_site_occupancy
  Re  Re0  1  0.00070589  0.00000000  0.00000000  1
  Al  Al1  1  0.50524878  0.50000000  0.50000000  1
  F  F2  1  0.49976991  0.00000000  0.50000000  1
  O  O3  1  0.50005583  0.50000000  0.00000000  1
  O  O4  1  0.00422805  0.50000000  0.50000000  1
