# generated using pymatgen
data_AlInSO2
_symmetry_space_group_name_H-M   'P 1'
_cell_length_a   4.15677342
_cell_length_b   4.15677342
_cell_length_c   4.15677342
_cell_angle_alpha   90.00000000
_cell_angle_beta   90.00000000
_cell_angle_gamma   90.00000000
_symmetry_Int_Tables_number   1
_chemical_formula_structural   AlInSO2
_chemical_formula_sum   'Al1 In1 S1 O2'
_cell_volume   71.82391214
_cell_formula_units_Z   1
loop_
 _symmetry_equiv_pos_site_id
 _symmetry_equiv_pos_as_xyz
  1  'x, y, z'
loop_
 _atom_site_type_symbol
 _atom_site_label
 _atom_site_symmetry_multiplicity
 _atom_site_fract_x
 _atom_site_fract_y
 _atom_site_fract_z
 _atom_site_occupancy
  In  In0  1  0.94748124  0.00000000  0.00000000  1
  Al  Al1  1  0.57877519  0.50000000  0.50000000  1
  S  S2  1  0.36287267  0.00000000  0.50000000  1
  O  O3  1  0.62245289  0.50000000  0.00000000  1
  O  O4  1  0.00465233  0.50000000  0.50000000  1
