# generated using pymatgen
data_MgGeO3
_symmetry_space_group_name_H-M   'P 1'
_cell_length_a   3.73825019
_cell_length_b   3.73825019
_cell_length_c   3.73825019
_cell_angle_alpha   90.00000000
_cell_angle_beta   90.00000000
_cell_angle_gamma   90.00000000
_symmetry_Int_Tables_number   1
_chemical_formula_structural   MgGeO3
_chemical_formula_sum   'Mg1 Ge1 O3'
_cell_volume   52.24023162
_cell_formula_units_Z   1
loop_
 _symmetry_equiv_pos_site_id
 _symmetry_equiv_pos_as_xyz
  1  'x, y, z'
loop_
 _atom_site_type_symbol
 _atom_site_label
 _atom_site_symmetry_multiplicity
 _atom_site_fract_x
 _atom_site_fract_y
 _atom_site_fract_z
 _atom_site_occupancy
  Mg  Mg0  1  0.00250186  0.00000000  0.00000000  1
  Ge  Ge1  1  0.50117439  0.50000000  0.50000000  1
  O  O2  1  0.50184218  0.00000000  0.50000000  1
  O  O3  1  0.50184218  0.50000000  0.00000000  1
  O  O4  1  0.00203442  0.50000000  0.50000000  1
