# generated using pymatgen
data_BeRuO3
_symmetry_space_group_name_H-M   'P 1'
_cell_length_a   3.90776063
_cell_length_b   3.90776063
_cell_length_c   3.90776063
_cell_angle_alpha   90.00000000
_cell_angle_beta   90.00000000
_cell_angle_gamma   90.00000000
_symmetry_Int_Tables_number   1
_chemical_formula_structural   BeRuO3
_chemical_formula_sum   'Be1 Ru1 O3'
_cell_volume   59.67382266
_cell_formula_units_Z   1
loop_
 _symmetry_equiv_pos_site_id
 _symmetry_equiv_pos_as_xyz
  1  'x, y, z'
loop_
 _atom_site_type_symbol
 _atom_site_label
 _atom_site_symmetry_multiplicity
 _atom_site_fract_x
 _atom_site_fract_y
 _atom_site_fract_z
 _atom_site_occupancy
  Be  Be0  1  0.32918444  0.00000000  0.00000000  1
  Ru  Ru1  1  0.49495457  0.50000000  0.50000000  1
  O  O2  1  0.36328630  0.00000000  0.50000000  1
  O  O3  1  0.36328630  0.50000000  0.00000000  1
  O  O4  1  0.96597186  0.50000000  0.50000000  1
