# generated using pymatgen
data_KNaN3
_symmetry_space_group_name_H-M   'P 1'
_cell_length_a   4.62439608
_cell_length_b   4.62439608
_cell_length_c   4.62439608
_cell_angle_alpha   90.00000000
_cell_angle_beta   90.00000000
_cell_angle_gamma   90.00000000
_symmetry_Int_Tables_number   1
_chemical_formula_structural   KNaN3
_chemical_formula_sum   'K1 Na1 N3'
_cell_volume   98.89289082
_cell_formula_units_Z   1
loop_
 _symmetry_equiv_pos_site_id
 _symmetry_equiv_pos_as_xyz
  1  'x, y, z'
loop_
 _atom_site_type_symbol
 _atom_site_label
 _atom_site_symmetry_multiplicity
 _atom_site_fract_x
 _atom_site_fract_y
 _atom_site_fract_z
 _atom_site_occupancy
  K  K0  1  0.00027789  0.00000000  0.00000000  1
  Na  Na1  1  0.50526597  0.50000000  0.50000000  1
  N  N2  1  0.49960552  0.00000000  0.50000000  1
  N  N3  1  0.49960552  0.50000000  0.00000000  1
  N  N4  1  0.00537877  0.50000000  0.50000000  1
