# generated using pymatgen
data_CaTiNO2
_symmetry_space_group_name_H-M   'P 1'
_cell_length_a   4.15215498
_cell_length_b   4.15215498
_cell_length_c   4.15215498
_cell_angle_alpha   90.00000000
_cell_angle_beta   90.00000000
_cell_angle_gamma   90.00000000
_symmetry_Int_Tables_number   1
_chemical_formula_structural   CaTiNO2
_chemical_formula_sum   'Ca1 Ti1 N1 O2'
_cell_volume   71.58477520
_cell_formula_units_Z   1
loop_
 _symmetry_equiv_pos_site_id
 _symmetry_equiv_pos_as_xyz
  1  'x, y, z'
loop_
 _atom_site_type_symbol
 _atom_site_label
 _atom_site_symmetry_multiplicity
 _atom_site_fract_x
 _atom_site_fract_y
 _atom_site_fract_z
 _atom_site_occupancy
  Ti  Ti0  1  0.35697302  0.00000000  1.00000000  1
  Ca  Ca1  1  0.70793965  0.50000000  0.50000000  1
  N  N2  1  0.31638985  0.00000000  0.50000000  1
  O  O3  1  0.52481480  0.50000000  0.00000000  1
  O  O4  1  0.19910107  0.50000000  0.50000000  1
