# generated using pymatgen
data_MgNbNO2
_symmetry_space_group_name_H-M   'P 1'
_cell_length_a   3.88756682
_cell_length_b   3.88756682
_cell_length_c   3.88756682
_cell_angle_alpha   90.00000000
_cell_angle_beta   90.00000000
_cell_angle_gamma   90.00000000
_symmetry_Int_Tables_number   1
_chemical_formula_structural   MgNbNO2
_chemical_formula_sum   'Mg1 Nb1 N1 O2'
_cell_volume   58.75348077
_cell_formula_units_Z   1
loop_
 _symmetry_equiv_pos_site_id
 _symmetry_equiv_pos_as_xyz
  1  'x, y, z'
loop_
 _atom_site_type_symbol
 _atom_site_label
 _atom_site_symmetry_multiplicity
 _atom_site_fract_x
 _atom_site_fract_y
 _atom_site_fract_z
 _atom_site_occupancy
  Nb  Nb0  1  0.18684594  0.00000000  0.00000000  1
  Mg  Mg1  1  0.50636733  0.50000000  0.50000000  1
  N  N2  1  0.40611715  0.00000000  0.50000000  1
  O  O3  1  0.42868572  0.50000000  0.00000000  1
  O  O4  1  0.98747008  0.50000000  0.50000000  1
