# generated using pymatgen
data_InRuNOF
_symmetry_space_group_name_H-M   'P 1'
_cell_length_a   4.27939801
_cell_length_b   4.27939801
_cell_length_c   4.27939801
_cell_angle_alpha   90.00000000
_cell_angle_beta   90.00000000
_cell_angle_gamma   90.00000000
_symmetry_Int_Tables_number   1
_chemical_formula_structural   InRuNOF
_chemical_formula_sum   'In1 Ru1 N1 O1 F1'
_cell_volume   78.36967440
_cell_formula_units_Z   1
loop_
 _symmetry_equiv_pos_site_id
 _symmetry_equiv_pos_as_xyz
  1  'x, y, z'
loop_
 _atom_site_type_symbol
 _atom_site_label
 _atom_site_symmetry_multiplicity
 _atom_site_fract_x
 _atom_site_fract_y
 _atom_site_fract_z
 _atom_site_occupancy
  Ru  Ru0  1  0.00112470  0.00000000  0.00000000  1
  In  In1  1  0.50006204  0.50000000  0.50000000  1
  F  F2  1  0.49997653  0.00000000  0.50000000  1
  N  N3  1  0.50129003  0.50000000  0.00000000  1
  O  O4  1  0.99987089  0.50000000  0.50000000  1
