# generated using pymatgen
data_MgVNO2
_symmetry_space_group_name_H-M   'P 1'
_cell_length_a   3.87187658
_cell_length_b   3.87187658
_cell_length_c   3.87187658
_cell_angle_alpha   90.00000000
_cell_angle_beta   90.00000000
_cell_angle_gamma   90.00000000
_symmetry_Int_Tables_number   1
_chemical_formula_structural   MgVNO2
_chemical_formula_sum   'Mg1 V1 N1 O2'
_cell_volume   58.04496001
_cell_formula_units_Z   1
loop_
 _symmetry_equiv_pos_site_id
 _symmetry_equiv_pos_as_xyz
  1  'x, y, z'
loop_
 _atom_site_type_symbol
 _atom_site_label
 _atom_site_symmetry_multiplicity
 _atom_site_fract_x
 _atom_site_fract_y
 _atom_site_fract_z
 _atom_site_occupancy
  Mg  Mg0  1  0.19417724  0.00000000  0.00000000  1
  V  V1  1  0.51516646  0.50000000  0.50000000  1
  N  N2  1  0.45348977  0.00000000  0.50000000  1
  O  O3  1  0.40415610  0.50000000  0.00000000  1
  O  O4  1  0.96806881  0.50000000  0.50000000  1
