# generated using pymatgen
data_HgAsN2O
_symmetry_space_group_name_H-M   'P 1'
_cell_length_a   3.94575916
_cell_length_b   3.94575916
_cell_length_c   3.94575916
_cell_angle_alpha   90.00000000
_cell_angle_beta   90.00000000
_cell_angle_gamma   90.00000000
_symmetry_Int_Tables_number   1
_chemical_formula_structural   HgAsN2O
_chemical_formula_sum   'Hg1 As1 N2 O1'
_cell_volume   61.43158494
_cell_formula_units_Z   1
loop_
 _symmetry_equiv_pos_site_id
 _symmetry_equiv_pos_as_xyz
  1  'x, y, z'
loop_
 _atom_site_type_symbol
 _atom_site_label
 _atom_site_symmetry_multiplicity
 _atom_site_fract_x
 _atom_site_fract_y
 _atom_site_fract_z
 _atom_site_occupancy
  Hg  Hg0  1  0.11063461  0.00000000  0.00000000  1
  As  As1  1  0.55721900  0.50000000  0.50000000  1
  N  N2  1  0.47727495  0.00000000  0.50000000  1
  N  N3  1  0.47727495  0.50000000  0.00000000  1
  O  O4  1  0.01156212  0.50000000  0.50000000  1
