# generated using pymatgen
data_MgBNOF
_symmetry_space_group_name_H-M   'P 1'
_cell_length_a   3.53791954
_cell_length_b   3.53791954
_cell_length_c   3.53791954
_cell_angle_alpha   90.00000000
_cell_angle_beta   90.00000000
_cell_angle_gamma   90.00000000
_symmetry_Int_Tables_number   1
_chemical_formula_structural   MgBNOF
_chemical_formula_sum   'Mg1 B1 N1 O1 F1'
_cell_volume   44.28369554
_cell_formula_units_Z   1
loop_
 _symmetry_equiv_pos_site_id
 _symmetry_equiv_pos_as_xyz
  1  'x, y, z'
loop_
 _atom_site_type_symbol
 _atom_site_label
 _atom_site_symmetry_multiplicity
 _atom_site_fract_x
 _atom_site_fract_y
 _atom_site_fract_z
 _atom_site_occupancy
  Mg  Mg0  1  0.07985056  0.00000000  0.00000000  1
  B  B1  1  0.56377645  0.50000000  0.50000000  1
  F  F2  1  0.43278139  0.00000000  0.50000000  1
  N  N3  1  0.48257359  0.50000000  0.00000000  1
  O  O4  1  0.95797273  0.50000000  0.50000000  1
