# generated using pymatgen
data_TiCrSO2
_symmetry_space_group_name_H-M   'P 1'
_cell_length_a   4.28865024
_cell_length_b   4.28865024
_cell_length_c   4.28865024
_cell_angle_alpha   90.00000000
_cell_angle_beta   90.00000000
_cell_angle_gamma   90.00000000
_symmetry_Int_Tables_number   1
_chemical_formula_structural   TiCrSO2
_chemical_formula_sum   'Ti1 Cr1 S1 O2'
_cell_volume   78.87908936
_cell_formula_units_Z   1
loop_
 _symmetry_equiv_pos_site_id
 _symmetry_equiv_pos_as_xyz
  1  'x, y, z'
loop_
 _atom_site_type_symbol
 _atom_site_label
 _atom_site_symmetry_multiplicity
 _atom_site_fract_x
 _atom_site_fract_y
 _atom_site_fract_z
 _atom_site_occupancy
  Cr  Cr0  1  0.70850445  0.00000000  0.00000000  1
  Ti  Ti1  1  0.68067908  0.50000000  0.50000000  1
  S  S2  1  0.44705110  0.00000000  0.50000000  1
  O  O3  1  0.65232511  0.50000000  0.00000000  1
  O  O4  1  0.08551977  0.50000000  0.50000000  1
