# generated using pymatgen
data_CdPbO2F
_symmetry_space_group_name_H-M   'P 1'
_cell_length_a   4.49570305
_cell_length_b   4.49570305
_cell_length_c   4.49570305
_cell_angle_alpha   90.00000000
_cell_angle_beta   90.00000000
_cell_angle_gamma   90.00000000
_symmetry_Int_Tables_number   1
_chemical_formula_structural   CdPbO2F
_chemical_formula_sum   'Cd1 Pb1 O2 F1'
_cell_volume   90.86420968
_cell_formula_units_Z   1
loop_
 _symmetry_equiv_pos_site_id
 _symmetry_equiv_pos_as_xyz
  1  'x, y, z'
loop_
 _atom_site_type_symbol
 _atom_site_label
 _atom_site_symmetry_multiplicity
 _atom_site_fract_x
 _atom_site_fract_y
 _atom_site_fract_z
 _atom_site_occupancy
  Cd  Cd0  1  0.00057254  0.00000000  0.00000000  1
  Pb  Pb1  1  0.50499836  0.50000000  0.50000000  1
  F  F2  1  0.49966722  0.00000000  0.50000000  1
  O  O3  1  0.49996567  0.50000000  0.00000000  1
  O  O4  1  0.00454430  0.50000000  0.50000000  1
