# generated using pymatgen
data_NaSrN2O
_symmetry_space_group_name_H-M   'P 1'
_cell_length_a   4.20516512
_cell_length_b   4.20516512
_cell_length_c   4.20516512
_cell_angle_alpha   90.00000000
_cell_angle_beta   90.00000000
_cell_angle_gamma   90.00000000
_symmetry_Int_Tables_number   1
_chemical_formula_structural   NaSrN2O
_chemical_formula_sum   'Na1 Sr1 N2 O1'
_cell_volume   74.36167465
_cell_formula_units_Z   1
loop_
 _symmetry_equiv_pos_site_id
 _symmetry_equiv_pos_as_xyz
  1  'x, y, z'
loop_
 _atom_site_type_symbol
 _atom_site_label
 _atom_site_symmetry_multiplicity
 _atom_site_fract_x
 _atom_site_fract_y
 _atom_site_fract_z
 _atom_site_occupancy
  Sr  Sr0  1  0.06547189  0.00000000  0.00000000  1
  Na  Na1  1  0.72151551  0.50000000  0.50000000  1
  N  N2  1  0.38353782  1.00000000  0.50000000  1
  N  N3  1  0.38353782  0.50000000  0.00000000  1
  O  O4  1  0.23237805  0.50000000  0.50000000  1
