# generated using pymatgen
data_CsBiO3
_symmetry_space_group_name_H-M   'P 1'
_cell_length_a   4.66230139
_cell_length_b   4.66230139
_cell_length_c   4.66230139
_cell_angle_alpha   90.00000000
_cell_angle_beta   90.00000000
_cell_angle_gamma   90.00000000
_symmetry_Int_Tables_number   1
_chemical_formula_structural   CsBiO3
_chemical_formula_sum   'Cs1 Bi1 O3'
_cell_volume   101.34469800
_cell_formula_units_Z   1
loop_
 _symmetry_equiv_pos_site_id
 _symmetry_equiv_pos_as_xyz
  1  'x, y, z'
loop_
 _atom_site_type_symbol
 _atom_site_label
 _atom_site_symmetry_multiplicity
 _atom_site_fract_x
 _atom_site_fract_y
 _atom_site_fract_z
 _atom_site_occupancy
  Bi  Bi0  1  0.84817580  1.00000000  1.00000000  1
  Cs  Cs1  1  0.31898184  0.50000000  0.50000000  1
  O  O2  1  0.79642485  0.00000000  0.50000000  1
  O  O3  1  0.79642485  0.50000000  0.00000000  1
  O  O4  1  0.81653215  0.50000000  0.50000000  1
