# generated using pymatgen
data_AlAuSO2
_symmetry_space_group_name_H-M   'P 1'
_cell_length_a   4.17202748
_cell_length_b   4.17202748
_cell_length_c   4.17202748
_cell_angle_alpha   90.00000000
_cell_angle_beta   90.00000000
_cell_angle_gamma   90.00000000
_symmetry_Int_Tables_number   1
_chemical_formula_structural   AlAuSO2
_chemical_formula_sum   'Al1 Au1 S1 O2'
_cell_volume   72.61753149
_cell_formula_units_Z   1
loop_
 _symmetry_equiv_pos_site_id
 _symmetry_equiv_pos_as_xyz
  1  'x, y, z'
loop_
 _atom_site_type_symbol
 _atom_site_label
 _atom_site_symmetry_multiplicity
 _atom_site_fract_x
 _atom_site_fract_y
 _atom_site_fract_z
 _atom_site_occupancy
  Au  Au0  1  0.02824076  0.00000000  0.00000000  1
  Al  Al1  1  0.56141603  0.50000000  0.50000000  1
  S  S2  1  0.34046870  0.00000000  0.50000000  1
  O  O3  1  0.57747217  0.50000000  0.00000000  1
  O  O4  1  0.99347078  0.50000000  0.50000000  1
