# generated using pymatgen
data_AlRuN3
_symmetry_space_group_name_H-M   'P 1'
_cell_length_a   3.95830067
_cell_length_b   3.95830067
_cell_length_c   3.95830067
_cell_angle_alpha   90.00000000
_cell_angle_beta   90.00000000
_cell_angle_gamma   90.00000000
_symmetry_Int_Tables_number   1
_chemical_formula_structural   AlRuN3
_chemical_formula_sum   'Al1 Ru1 N3'
_cell_volume   62.01922557
_cell_formula_units_Z   1
loop_
 _symmetry_equiv_pos_site_id
 _symmetry_equiv_pos_as_xyz
  1  'x, y, z'
loop_
 _atom_site_type_symbol
 _atom_site_label
 _atom_site_symmetry_multiplicity
 _atom_site_fract_x
 _atom_site_fract_y
 _atom_site_fract_z
 _atom_site_occupancy
  Al  Al0  1  0.28380829  1.00000000  0.00000000  1
  Ru  Ru1  1  0.52167323  0.50000000  0.50000000  1
  N  N2  1  0.33878373  0.00000000  0.50000000  1
  N  N3  1  0.33878373  0.50000000  0.00000000  1
  N  N4  1  0.95165889  0.50000000  0.50000000  1
