# generated using pymatgen
data_BiRuN2O
_symmetry_space_group_name_H-M   'P 1'
_cell_length_a   4.28152063
_cell_length_b   4.28152063
_cell_length_c   4.28152063
_cell_angle_alpha   90.00000000
_cell_angle_beta   90.00000000
_cell_angle_gamma   90.00000000
_symmetry_Int_Tables_number   1
_chemical_formula_structural   BiRuN2O
_chemical_formula_sum   'Bi1 Ru1 N2 O1'
_cell_volume   78.48634805
_cell_formula_units_Z   1
loop_
 _symmetry_equiv_pos_site_id
 _symmetry_equiv_pos_as_xyz
  1  'x, y, z'
loop_
 _atom_site_type_symbol
 _atom_site_label
 _atom_site_symmetry_multiplicity
 _atom_site_fract_x
 _atom_site_fract_y
 _atom_site_fract_z
 _atom_site_occupancy
  Ru  Ru0  1  0.20535232  0.00000000  0.00000000  1
  Bi  Bi1  1  0.41450074  0.50000000  0.50000000  1
  N  N2  1  0.22969026  0.00000000  0.50000000  1
  N  N3  1  0.22969026  0.50000000  0.00000000  1
  O  O4  1  0.88702335  0.50000000  0.50000000  1
