# generated using pymatgen
data_InNiNO2
_symmetry_space_group_name_H-M   'P 1'
_cell_length_a   4.15619700
_cell_length_b   4.15619700
_cell_length_c   4.15619700
_cell_angle_alpha   90.00000000
_cell_angle_beta   90.00000000
_cell_angle_gamma   90.00000000
_symmetry_Int_Tables_number   1
_chemical_formula_structural   InNiNO2
_chemical_formula_sum   'In1 Ni1 N1 O2'
_cell_volume   71.79403678
_cell_formula_units_Z   1
loop_
 _symmetry_equiv_pos_site_id
 _symmetry_equiv_pos_as_xyz
  1  'x, y, z'
loop_
 _atom_site_type_symbol
 _atom_site_label
 _atom_site_symmetry_multiplicity
 _atom_site_fract_x
 _atom_site_fract_y
 _atom_site_fract_z
 _atom_site_occupancy
  Ni  Ni0  1  0.31894402  0.00000000  0.00000000  1
  In  In1  1  0.52128487  0.50000000  0.50000000  1
  N  N2  1  0.34697604  0.00000000  0.50000000  1
  O  O3  1  0.40086284  0.50000000  0.00000000  1
  O  O4  1  0.00345506  0.50000000  0.50000000  1
