# generated using pymatgen
data_BaTaNO2
_symmetry_space_group_name_H-M   'P 1'
_cell_length_a   4.44673593
_cell_length_b   4.44673593
_cell_length_c   4.44673593
_cell_angle_alpha   90.00000000
_cell_angle_beta   90.00000000
_cell_angle_gamma   90.00000000
_symmetry_Int_Tables_number   1
_chemical_formula_structural   BaTaNO2
_chemical_formula_sum   'Ba1 Ta1 N1 O2'
_cell_volume   87.92735693
_cell_formula_units_Z   1
loop_
 _symmetry_equiv_pos_site_id
 _symmetry_equiv_pos_as_xyz
  1  'x, y, z'
loop_
 _atom_site_type_symbol
 _atom_site_label
 _atom_site_symmetry_multiplicity
 _atom_site_fract_x
 _atom_site_fract_y
 _atom_site_fract_z
 _atom_site_occupancy
  Ta  Ta0  1  0.93062360  1.00000000  0.00000000  1
  Ba  Ba1  1  0.31718702  0.50000000  0.50000000  1
  N  N2  1  0.92394549  0.00000000  0.50000000  1
  O  O3  1  0.01153975  0.50000000  0.00000000  1
  O  O4  1  0.80851660  0.50000000  0.50000000  1
