# generated using pymatgen
data_TaPtN3
_symmetry_space_group_name_H-M   'P 1'
_cell_length_a   4.00342260
_cell_length_b   4.00342260
_cell_length_c   4.00342260
_cell_angle_alpha   90.00000000
_cell_angle_beta   90.00000000
_cell_angle_gamma   90.00000000
_symmetry_Int_Tables_number   1
_chemical_formula_structural   TaPtN3
_chemical_formula_sum   'Ta1 Pt1 N3'
_cell_volume   64.16442517
_cell_formula_units_Z   1
loop_
 _symmetry_equiv_pos_site_id
 _symmetry_equiv_pos_as_xyz
  1  'x, y, z'
loop_
 _atom_site_type_symbol
 _atom_site_label
 _atom_site_symmetry_multiplicity
 _atom_site_fract_x
 _atom_site_fract_y
 _atom_site_fract_z
 _atom_site_occupancy
  Ta  Ta0  1  0.10984352  1.00000000  0.00000000  1
  Pt  Pt1  1  0.24825432  0.50000000  0.50000000  1
  N  N2  1  0.35355640  1.00000000  0.50000000  1
  N  N3  1  0.35355640  0.50000000  0.00000000  1
  N  N4  1  0.76416178  0.50000000  0.50000000  1
