# generated using pymatgen
data_BeInO3
_symmetry_space_group_name_H-M   'P 1'
_cell_length_a   3.56972730
_cell_length_b   3.56972730
_cell_length_c   3.56972730
_cell_angle_alpha   90.00000000
_cell_angle_beta   90.00000000
_cell_angle_gamma   90.00000000
_symmetry_Int_Tables_number   1
_chemical_formula_structural   BeInO3
_chemical_formula_sum   'Be1 In1 O3'
_cell_volume   45.48886702
_cell_formula_units_Z   1
loop_
 _symmetry_equiv_pos_site_id
 _symmetry_equiv_pos_as_xyz
  1  'x, y, z'
loop_
 _atom_site_type_symbol
 _atom_site_label
 _atom_site_symmetry_multiplicity
 _atom_site_fract_x
 _atom_site_fract_y
 _atom_site_fract_z
 _atom_site_occupancy
  In  In0  1  0.99901532  0.00000000  0.00000000  1
  Be  Be1  1  0.49990622  0.50000000  0.50000000  1
  O  O2  1  0.50287336  0.00000000  0.50000000  1
  O  O3  1  0.50287336  0.50000000  0.00000000  1
  O  O4  1  0.00273815  0.50000000  0.50000000  1
