# generated using pymatgen
data_RhAuNO2
_symmetry_space_group_name_H-M   'P 1'
_cell_length_a   4.12575034
_cell_length_b   4.12575034
_cell_length_c   4.12575034
_cell_angle_alpha   90.00000000
_cell_angle_beta   90.00000000
_cell_angle_gamma   90.00000000
_symmetry_Int_Tables_number   1
_chemical_formula_structural   RhAuNO2
_chemical_formula_sum   'Rh1 Au1 N1 O2'
_cell_volume   70.22776253
_cell_formula_units_Z   1
loop_
 _symmetry_equiv_pos_site_id
 _symmetry_equiv_pos_as_xyz
  1  'x, y, z'
loop_
 _atom_site_type_symbol
 _atom_site_label
 _atom_site_symmetry_multiplicity
 _atom_site_fract_x
 _atom_site_fract_y
 _atom_site_fract_z
 _atom_site_occupancy
  Rh  Rh0  1  0.20561076  0.00000000  1.00000000  1
  Au  Au1  1  0.50026682  0.50000000  0.50000000  1
  N  N2  1  0.38077776  0.00000000  0.50000000  1
  O  O3  1  0.34424101  0.50000000  0.00000000  1
  O  O4  1  0.98205303  0.50000000  0.50000000  1
