# generated using pymatgen
data_GaRuO3
_symmetry_space_group_name_H-M   'P 1'
_cell_length_a   3.88457195
_cell_length_b   3.88457195
_cell_length_c   3.88457195
_cell_angle_alpha   90.00000000
_cell_angle_beta   90.00000000
_cell_angle_gamma   90.00000000
_symmetry_Int_Tables_number   1
_chemical_formula_structural   GaRuO3
_chemical_formula_sum   'Ga1 Ru1 O3'
_cell_volume   58.61779913
_cell_formula_units_Z   1
loop_
 _symmetry_equiv_pos_site_id
 _symmetry_equiv_pos_as_xyz
  1  'x, y, z'
loop_
 _atom_site_type_symbol
 _atom_site_label
 _atom_site_symmetry_multiplicity
 _atom_site_fract_x
 _atom_site_fract_y
 _atom_site_fract_z
 _atom_site_occupancy
  Ru  Ru0  1  0.00392369  0.00000000  0.00000000  1
  Ga  Ga1  1  0.50078353  0.50000000  0.50000000  1
  O  O2  1  0.50285272  0.00000000  0.50000000  1
  O  O3  1  0.50285272  0.50000000  0.00000000  1
  O  O4  1  0.00125329  0.50000000  0.50000000  1
