# generated using pymatgen
data_BaAuSO2
_symmetry_space_group_name_H-M   'P 1'
_cell_length_a   5.33599719
_cell_length_b   5.33599719
_cell_length_c   5.33599719
_cell_angle_alpha   90.00000000
_cell_angle_beta   90.00000000
_cell_angle_gamma   90.00000000
_symmetry_Int_Tables_number   1
_chemical_formula_structural   BaAuSO2
_chemical_formula_sum   'Ba1 Au1 S1 O2'
_cell_volume   151.93113268
_cell_formula_units_Z   1
loop_
 _symmetry_equiv_pos_site_id
 _symmetry_equiv_pos_as_xyz
  1  'x, y, z'
loop_
 _atom_site_type_symbol
 _atom_site_label
 _atom_site_symmetry_multiplicity
 _atom_site_fract_x
 _atom_site_fract_y
 _atom_site_fract_z
 _atom_site_occupancy
  Au  Au0  1  0.99975378  0.00000000  0.00000000  1
  Ba  Ba1  1  0.50400153  0.50000000  0.50000000  1
  S  S2  1  0.49919022  0.00000000  0.50000000  1
  O  O3  1  0.50101097  0.50000000  0.00000000  1
  O  O4  1  0.00789937  0.50000000  0.50000000  1
