# generated using pymatgen
data_LaBO2F
_symmetry_space_group_name_H-M   'P 1'
_cell_length_a   3.92723936
_cell_length_b   3.92723936
_cell_length_c   3.92723936
_cell_angle_alpha   90.00000000
_cell_angle_beta   90.00000000
_cell_angle_gamma   90.00000000
_symmetry_Int_Tables_number   1
_chemical_formula_structural   LaBO2F
_chemical_formula_sum   'La1 B1 O2 F1'
_cell_volume   60.57063351
_cell_formula_units_Z   1
loop_
 _symmetry_equiv_pos_site_id
 _symmetry_equiv_pos_as_xyz
  1  'x, y, z'
loop_
 _atom_site_type_symbol
 _atom_site_label
 _atom_site_symmetry_multiplicity
 _atom_site_fract_x
 _atom_site_fract_y
 _atom_site_fract_z
 _atom_site_occupancy
  La  La0  1  0.02841384  0.00000000  0.00000000  1
  B  B1  1  0.58520155  0.50000000  0.50000000  1
  F  F2  1  0.47540694  0.00000000  0.50000000  1
  O  O3  1  0.48267731  0.50000000  0.00000000  1
  O  O4  1  0.93236560  0.50000000  0.50000000  1
