# generated using pymatgen
data_LaSiN2O
_symmetry_space_group_name_H-M   'P 1'
_cell_length_a   4.46159267
_cell_length_b   4.46159267
_cell_length_c   4.46159267
_cell_angle_alpha   90.00000000
_cell_angle_beta   90.00000000
_cell_angle_gamma   90.00000000
_symmetry_Int_Tables_number   1
_chemical_formula_structural   LaSiN2O
_chemical_formula_sum   'La1 Si1 N2 O1'
_cell_volume   88.81161194
_cell_formula_units_Z   1
loop_
 _symmetry_equiv_pos_site_id
 _symmetry_equiv_pos_as_xyz
  1  'x, y, z'
loop_
 _atom_site_type_symbol
 _atom_site_label
 _atom_site_symmetry_multiplicity
 _atom_site_fract_x
 _atom_site_fract_y
 _atom_site_fract_z
 _atom_site_occupancy
  Si  Si0  1  0.00033931  0.00000000  0.00000000  1
  La  La1  1  0.50400614  0.50000000  0.50000000  1
  N  N2  1  0.50040923  0.00000000  0.50000000  1
  N  N3  1  0.50040923  0.50000000  0.00000000  1
  O  O4  1  0.00384086  0.50000000  0.50000000  1
