# generated using pymatgen
data_BiBN2O
_symmetry_space_group_name_H-M   'P 1'
_cell_length_a   4.17061600
_cell_length_b   4.17061600
_cell_length_c   4.17061600
_cell_angle_alpha   90.00000000
_cell_angle_beta   90.00000000
_cell_angle_gamma   90.00000000
_symmetry_Int_Tables_number   1
_chemical_formula_structural   BiBN2O
_chemical_formula_sum   'Bi1 B1 N2 O1'
_cell_volume   72.54385225
_cell_formula_units_Z   1
loop_
 _symmetry_equiv_pos_site_id
 _symmetry_equiv_pos_as_xyz
  1  'x, y, z'
loop_
 _atom_site_type_symbol
 _atom_site_label
 _atom_site_symmetry_multiplicity
 _atom_site_fract_x
 _atom_site_fract_y
 _atom_site_fract_z
 _atom_site_occupancy
  B  B0  1  0.33963653  0.00000000  1.00000000  1
  Bi  Bi1  1  0.51391727  0.50000000  0.50000000  1
  N  N2  1  0.37801411  0.00000000  0.50000000  1
  N  N3  1  0.37801411  0.50000000  0.00000000  1
  O  O4  1  0.99396793  0.50000000  0.50000000  1
