# generated using pymatgen
data_FePbN3
_symmetry_space_group_name_H-M   'P 1'
_cell_length_a   4.11256217
_cell_length_b   4.11256217
_cell_length_c   4.11256217
_cell_angle_alpha   90.00000000
_cell_angle_beta   90.00000000
_cell_angle_gamma   90.00000000
_symmetry_Int_Tables_number   1
_chemical_formula_structural   FePbN3
_chemical_formula_sum   'Fe1 Pb1 N3'
_cell_volume   69.55645311
_cell_formula_units_Z   1
loop_
 _symmetry_equiv_pos_site_id
 _symmetry_equiv_pos_as_xyz
  1  'x, y, z'
loop_
 _atom_site_type_symbol
 _atom_site_label
 _atom_site_symmetry_multiplicity
 _atom_site_fract_x
 _atom_site_fract_y
 _atom_site_fract_z
 _atom_site_occupancy
  Fe  Fe0  1  0.23379322  1.00000000  1.00000000  1
  Pb  Pb1  1  0.67478286  0.50000000  0.50000000  1
  N  N2  1  0.22719094  1.00000000  0.50000000  1
  N  N3  1  0.22719094  0.50000000  0.00000000  1
  N  N4  1  0.17674580  0.50000000  0.50000000  1
