# generated using pymatgen
data_MnCoN3
_symmetry_space_group_name_H-M   'P 1'
_cell_length_a   3.71199999
_cell_length_b   3.71199999
_cell_length_c   3.71199999
_cell_angle_alpha   90.00000000
_cell_angle_beta   90.00000000
_cell_angle_gamma   90.00000000
_symmetry_Int_Tables_number   1
_chemical_formula_structural   MnCoN3
_chemical_formula_sum   'Mn1 Co1 N3'
_cell_volume   51.14743958
_cell_formula_units_Z   1
loop_
 _symmetry_equiv_pos_site_id
 _symmetry_equiv_pos_as_xyz
  1  'x, y, z'
loop_
 _atom_site_type_symbol
 _atom_site_label
 _atom_site_symmetry_multiplicity
 _atom_site_fract_x
 _atom_site_fract_y
 _atom_site_fract_z
 _atom_site_occupancy
  Mn  Mn0  1  0.18724249  0.00000000  0.00000000  1
  Co  Co1  1  0.53368975  0.50000000  0.50000000  1
  N  N2  1  0.39690599  0.00000000  0.50000000  1
  N  N3  1  0.39690599  0.50000000  0.00000000  1
  N  N4  1  0.98883530  0.50000000  0.50000000  1
