# generated using pymatgen
data_AsRhNO2
_symmetry_space_group_name_H-M   'P 1'
_cell_length_a   3.77383911
_cell_length_b   3.77383911
_cell_length_c   3.77383911
_cell_angle_alpha   90.00000000
_cell_angle_beta   90.00000000
_cell_angle_gamma   90.00000000
_symmetry_Int_Tables_number   1
_chemical_formula_structural   AsRhNO2
_chemical_formula_sum   'As1 Rh1 N1 O2'
_cell_volume   53.74649454
_cell_formula_units_Z   1
loop_
 _symmetry_equiv_pos_site_id
 _symmetry_equiv_pos_as_xyz
  1  'x, y, z'
loop_
 _atom_site_type_symbol
 _atom_site_label
 _atom_site_symmetry_multiplicity
 _atom_site_fract_x
 _atom_site_fract_y
 _atom_site_fract_z
 _atom_site_occupancy
  Rh  Rh0  1  0.00104385  0.00000000  0.00000000  1
  As  As1  1  0.50647147  0.50000000  0.50000000  1
  N  N2  1  0.49933582  0.00000000  0.50000000  1
  O  O3  1  0.49938469  0.50000000  0.00000000  1
  O  O4  1  0.00374939  0.50000000  0.50000000  1
