# generated using pymatgen
data_BAsO2F
_symmetry_space_group_name_H-M   'P 1'
_cell_length_a   4.02642473
_cell_length_b   4.02642473
_cell_length_c   4.02642473
_cell_angle_alpha   90.00000000
_cell_angle_beta   90.00000000
_cell_angle_gamma   90.00000000
_symmetry_Int_Tables_number   1
_chemical_formula_structural   BAsO2F
_chemical_formula_sum   'B1 As1 O2 F1'
_cell_volume   65.27678476
_cell_formula_units_Z   1
loop_
 _symmetry_equiv_pos_site_id
 _symmetry_equiv_pos_as_xyz
  1  'x, y, z'
loop_
 _atom_site_type_symbol
 _atom_site_label
 _atom_site_symmetry_multiplicity
 _atom_site_fract_x
 _atom_site_fract_y
 _atom_site_fract_z
 _atom_site_occupancy
  B  B0  1  0.12532258  0.00000000  0.00000000  1
  As  As1  1  0.53268499  0.50000000  0.50000000  1
  F  F2  1  0.44732016  0.00000000  0.50000000  1
  O  O3  1  0.42704286  0.50000000  0.00000000  1
  O  O4  1  0.96406320  0.50000000  0.50000000  1
