# generated using pymatgen
data_MnInSO2
_symmetry_space_group_name_H-M   'P 1'
_cell_length_a   4.20192097
_cell_length_b   4.20192097
_cell_length_c   4.20192097
_cell_angle_alpha   90.00000000
_cell_angle_beta   90.00000000
_cell_angle_gamma   90.00000000
_symmetry_Int_Tables_number   1
_chemical_formula_structural   MnInSO2
_chemical_formula_sum   'Mn1 In1 S1 O2'
_cell_volume   74.18970448
_cell_formula_units_Z   1
loop_
 _symmetry_equiv_pos_site_id
 _symmetry_equiv_pos_as_xyz
  1  'x, y, z'
loop_
 _atom_site_type_symbol
 _atom_site_label
 _atom_site_symmetry_multiplicity
 _atom_site_fract_x
 _atom_site_fract_y
 _atom_site_fract_z
 _atom_site_occupancy
  In  In0  1  0.93419092  0.00000000  0.00000000  1
  Mn  Mn1  1  0.58094648  0.50000000  0.50000000  1
  S  S2  1  0.35556399  0.00000000  0.50000000  1
  O  O3  1  0.63097370  0.50000000  0.00000000  1
  O  O4  1  0.02213766  0.50000000  0.50000000  1
