# generated using pymatgen
data_SbWSO2
_symmetry_space_group_name_H-M   'P 1'
_cell_length_a   4.34890107
_cell_length_b   4.34890107
_cell_length_c   4.34890107
_cell_angle_alpha   90.00000000
_cell_angle_beta   90.00000000
_cell_angle_gamma   90.00000000
_symmetry_Int_Tables_number   1
_chemical_formula_structural   SbWSO2
_chemical_formula_sum   'Sb1 W1 S1 O2'
_cell_volume   82.25050708
_cell_formula_units_Z   1
loop_
 _symmetry_equiv_pos_site_id
 _symmetry_equiv_pos_as_xyz
  1  'x, y, z'
loop_
 _atom_site_type_symbol
 _atom_site_label
 _atom_site_symmetry_multiplicity
 _atom_site_fract_x
 _atom_site_fract_y
 _atom_site_fract_z
 _atom_site_occupancy
  Sb  Sb0  1  0.85024961  0.00000000  0.00000000  1
  W  W1  1  0.60740156  0.50000000  0.50000000  1
  S  S2  1  0.37691658  0.00000000  0.50000000  1
  O  O3  1  0.62019338  0.50000000  0.00000000  1
  O  O4  1  0.04809730  0.50000000  0.50000000  1
