# generated using pymatgen
data_CrSiN3
_symmetry_space_group_name_H-M   'P 1'
_cell_length_a   3.62788180
_cell_length_b   3.62788180
_cell_length_c   3.62788180
_cell_angle_alpha   90.00000000
_cell_angle_beta   90.00000000
_cell_angle_gamma   90.00000000
_symmetry_Int_Tables_number   1
_chemical_formula_structural   CrSiN3
_chemical_formula_sum   'Cr1 Si1 N3'
_cell_volume   47.74846195
_cell_formula_units_Z   1
loop_
 _symmetry_equiv_pos_site_id
 _symmetry_equiv_pos_as_xyz
  1  'x, y, z'
loop_
 _atom_site_type_symbol
 _atom_site_label
 _atom_site_symmetry_multiplicity
 _atom_site_fract_x
 _atom_site_fract_y
 _atom_site_fract_z
 _atom_site_occupancy
  Cr  Cr0  1  0.87017778  0.00000000  0.00000000  1
  Si  Si1  1  0.54191472  0.50000000  0.50000000  1
  N  N2  1  0.59155628  0.00000000  0.50000000  1
  N  N3  1  0.59155628  0.50000000  0.00000000  1
  N  N4  1  0.05387918  0.50000000  0.50000000  1
