# generated using pymatgen
data_YCrO3
_symmetry_space_group_name_H-M   'P 1'
_cell_length_a   4.34850043
_cell_length_b   4.34850043
_cell_length_c   4.34850043
_cell_angle_alpha   90.00000000
_cell_angle_beta   90.00000000
_cell_angle_gamma   90.00000000
_symmetry_Int_Tables_number   1
_chemical_formula_structural   YCrO3
_chemical_formula_sum   'Y1 Cr1 O3'
_cell_volume   82.22777753
_cell_formula_units_Z   1
loop_
 _symmetry_equiv_pos_site_id
 _symmetry_equiv_pos_as_xyz
  1  'x, y, z'
loop_
 _atom_site_type_symbol
 _atom_site_label
 _atom_site_symmetry_multiplicity
 _atom_site_fract_x
 _atom_site_fract_y
 _atom_site_fract_z
 _atom_site_occupancy
  Cr  Cr0  1  0.00026800  0.00000000  0.00000000  1
  Y  Y1  1  0.50547528  0.50000000  0.50000000  1
  O  O2  1  0.49973724  0.00000000  0.50000000  1
  O  O3  1  0.49973724  0.50000000  0.00000000  1
  O  O4  1  0.00479863  0.50000000  0.50000000  1
