# generated using pymatgen
data_BaLiN3
_symmetry_space_group_name_H-M   'P 1'
_cell_length_a   4.67700130
_cell_length_b   4.67700130
_cell_length_c   4.67700130
_cell_angle_alpha   90.00000000
_cell_angle_beta   90.00000000
_cell_angle_gamma   90.00000000
_symmetry_Int_Tables_number   1
_chemical_formula_structural   BaLiN3
_chemical_formula_sum   'Ba1 Li1 N3'
_cell_volume   102.30632219
_cell_formula_units_Z   1
loop_
 _symmetry_equiv_pos_site_id
 _symmetry_equiv_pos_as_xyz
  1  'x, y, z'
loop_
 _atom_site_type_symbol
 _atom_site_label
 _atom_site_symmetry_multiplicity
 _atom_site_fract_x
 _atom_site_fract_y
 _atom_site_fract_z
 _atom_site_occupancy
  Li  Li0  1  0.00031297  0.00000000  0.00000000  1
  Ba  Ba1  1  0.50398943  0.50000000  0.50000000  1
  N  N2  1  0.50040800  0.00000000  0.50000000  1
  N  N3  1  0.50040800  0.50000000  0.00000000  1
  N  N4  1  0.00505033  0.50000000  0.50000000  1
