# generated using pymatgen
data_FeRuO2F
_symmetry_space_group_name_H-M   'P 1'
_cell_length_a   4.00232659
_cell_length_b   4.00232659
_cell_length_c   4.00232659
_cell_angle_alpha   90.00000000
_cell_angle_beta   90.00000000
_cell_angle_gamma   90.00000000
_symmetry_Int_Tables_number   1
_chemical_formula_structural   FeRuO2F
_chemical_formula_sum   'Fe1 Ru1 O2 F1'
_cell_volume   64.11174152
_cell_formula_units_Z   1
loop_
 _symmetry_equiv_pos_site_id
 _symmetry_equiv_pos_as_xyz
  1  'x, y, z'
loop_
 _atom_site_type_symbol
 _atom_site_label
 _atom_site_symmetry_multiplicity
 _atom_site_fract_x
 _atom_site_fract_y
 _atom_site_fract_z
 _atom_site_occupancy
  Fe  Fe0  1  0.00031883  0.00000000  0.00000000  1
  Ru  Ru1  1  0.50505202  0.50000000  0.50000000  1
  F  F2  1  0.49975876  0.00000000  0.50000000  1
  O  O3  1  0.49993884  0.50000000  0.00000000  1
  O  O4  1  0.00487610  0.50000000  0.50000000  1
