# generated using pymatgen
data_MgGaNO2
_symmetry_space_group_name_H-M   'P 1'
_cell_length_a   3.91946591
_cell_length_b   3.91946591
_cell_length_c   3.91946591
_cell_angle_alpha   90.00000000
_cell_angle_beta   90.00000000
_cell_angle_gamma   90.00000000
_symmetry_Int_Tables_number   1
_chemical_formula_structural   MgGaNO2
_chemical_formula_sum   'Mg1 Ga1 N1 O2'
_cell_volume   60.21167039
_cell_formula_units_Z   1
loop_
 _symmetry_equiv_pos_site_id
 _symmetry_equiv_pos_as_xyz
  1  'x, y, z'
loop_
 _atom_site_type_symbol
 _atom_site_label
 _atom_site_symmetry_multiplicity
 _atom_site_fract_x
 _atom_site_fract_y
 _atom_site_fract_z
 _atom_site_occupancy
  Mg  Mg0  1  0.00242951  0.00000000  0.00000000  1
  Ga  Ga1  1  0.50094364  0.50000000  0.50000000  1
  N  N2  1  0.50098506  0.00000000  0.50000000  1
  O  O3  1  0.50170220  0.50000000  0.00000000  1
  O  O4  1  0.00125615  0.50000000  0.50000000  1
