# generated using pymatgen
data_ScCrSO2
_symmetry_space_group_name_H-M   'P 1'
_cell_length_a   4.32741165
_cell_length_b   4.32741165
_cell_length_c   4.32741165
_cell_angle_alpha   90.00000000
_cell_angle_beta   90.00000000
_cell_angle_gamma   90.00000000
_symmetry_Int_Tables_number   1
_chemical_formula_structural   ScCrSO2
_chemical_formula_sum   'Sc1 Cr1 S1 O2'
_cell_volume   81.03723810
_cell_formula_units_Z   1
loop_
 _symmetry_equiv_pos_site_id
 _symmetry_equiv_pos_as_xyz
  1  'x, y, z'
loop_
 _atom_site_type_symbol
 _atom_site_label
 _atom_site_symmetry_multiplicity
 _atom_site_fract_x
 _atom_site_fract_y
 _atom_site_fract_z
 _atom_site_occupancy
  Cr  Cr0  1  0.74691616  0.00000000  0.00000000  1
  Sc  Sc1  1  0.60533654  0.50000000  0.50000000  1
  S  S2  1  0.92699274  0.00000000  0.50000000  1
  O  O3  1  0.65306145  0.50000000  0.00000000  1
  O  O4  1  0.14468209  0.50000000  0.50000000  1
