# generated using pymatgen
data_TeRuNO2
_symmetry_space_group_name_H-M   'P 1'
_cell_length_a   3.99501193
_cell_length_b   3.99501193
_cell_length_c   3.99501193
_cell_angle_alpha   90.00000000
_cell_angle_beta   90.00000000
_cell_angle_gamma   90.00000000
_symmetry_Int_Tables_number   1
_chemical_formula_structural   TeRuNO2
_chemical_formula_sum   'Te1 Ru1 N1 O2'
_cell_volume   63.76087107
_cell_formula_units_Z   1
loop_
 _symmetry_equiv_pos_site_id
 _symmetry_equiv_pos_as_xyz
  1  'x, y, z'
loop_
 _atom_site_type_symbol
 _atom_site_label
 _atom_site_symmetry_multiplicity
 _atom_site_fract_x
 _atom_site_fract_y
 _atom_site_fract_z
 _atom_site_occupancy
  Te  Te0  1  0.00194554  0.00000000  0.00000000  1
  Ru  Ru1  1  0.50324818  0.50000000  0.50000000  1
  N  N2  1  0.50067738  0.00000000  0.50000000  1
  O  O3  1  0.49976219  0.50000000  0.00000000  1
  O  O4  1  0.00409908  0.50000000  0.50000000  1
