# generated using pymatgen
data_KCaNO2
_symmetry_space_group_name_H-M   'P 1'
_cell_length_a   4.44073325
_cell_length_b   4.44073325
_cell_length_c   4.44073325
_cell_angle_alpha   90.00000000
_cell_angle_beta   90.00000000
_cell_angle_gamma   90.00000000
_symmetry_Int_Tables_number   1
_chemical_formula_structural   KCaNO2
_chemical_formula_sum   'K1 Ca1 N1 O2'
_cell_volume   87.57175638
_cell_formula_units_Z   1
loop_
 _symmetry_equiv_pos_site_id
 _symmetry_equiv_pos_as_xyz
  1  'x, y, z'
loop_
 _atom_site_type_symbol
 _atom_site_label
 _atom_site_symmetry_multiplicity
 _atom_site_fract_x
 _atom_site_fract_y
 _atom_site_fract_z
 _atom_site_occupancy
  Ca  Ca0  1  0.00076311  0.00000000  0.00000000  1
  K  K1  1  0.50482961  0.50000000  0.50000000  1
  N  N2  1  0.49970669  0.00000000  0.50000000  1
  O  O3  1  0.49988171  0.50000000  0.00000000  1
  O  O4  1  0.00428802  0.50000000  0.50000000  1
