# generated using pymatgen
data_ZrAlSO2
_symmetry_space_group_name_H-M   'P 1'
_cell_length_a   4.58555476
_cell_length_b   4.58555476
_cell_length_c   4.58555476
_cell_angle_alpha   90.00000000
_cell_angle_beta   90.00000000
_cell_angle_gamma   90.00000000
_symmetry_Int_Tables_number   1
_chemical_formula_structural   ZrAlSO2
_chemical_formula_sum   'Zr1 Al1 S1 O2'
_cell_volume   96.42189276
_cell_formula_units_Z   1
loop_
 _symmetry_equiv_pos_site_id
 _symmetry_equiv_pos_as_xyz
  1  'x, y, z'
loop_
 _atom_site_type_symbol
 _atom_site_label
 _atom_site_symmetry_multiplicity
 _atom_site_fract_x
 _atom_site_fract_y
 _atom_site_fract_z
 _atom_site_occupancy
  Al  Al0  1  0.32439596  1.00000000  0.00000000  1
  Zr  Zr1  1  0.53345284  0.50000000  0.50000000  1
  S  S2  1  0.28449579  0.00000000  0.50000000  1
  O  O3  1  0.43410642  0.50000000  0.00000000  1
  O  O4  1  0.93762222  0.50000000  0.50000000  1
