# generated using pymatgen
data_BaSbSO2
_symmetry_space_group_name_H-M   'P 1'
_cell_length_a   5.16132694
_cell_length_b   5.16132694
_cell_length_c   5.16132694
_cell_angle_alpha   90.00000000
_cell_angle_beta   90.00000000
_cell_angle_gamma   90.00000000
_symmetry_Int_Tables_number   1
_chemical_formula_structural   BaSbSO2
_chemical_formula_sum   'Ba1 Sb1 S1 O2'
_cell_volume   137.49411537
_cell_formula_units_Z   1
loop_
 _symmetry_equiv_pos_site_id
 _symmetry_equiv_pos_as_xyz
  1  'x, y, z'
loop_
 _atom_site_type_symbol
 _atom_site_label
 _atom_site_symmetry_multiplicity
 _atom_site_fract_x
 _atom_site_fract_y
 _atom_site_fract_z
 _atom_site_occupancy
  Sb  Sb0  1  0.99994845  0.00000000  0.00000000  1
  Ba  Ba1  1  0.50445209  0.50000000  0.50000000  1
  S  S2  1  0.50005075  0.00000000  0.50000000  1
  O  O3  1  0.50104497  0.50000000  0.00000000  1
  O  O4  1  0.00405630  0.50000000  0.50000000  1
