# generated using pymatgen
data_CrRhO2F
_symmetry_space_group_name_H-M   'P 1'
_cell_length_a   3.91937404
_cell_length_b   3.91937404
_cell_length_c   3.91937404
_cell_angle_alpha   90.00000000
_cell_angle_beta   90.00000000
_cell_angle_gamma   90.00000000
_symmetry_Int_Tables_number   1
_chemical_formula_structural   CrRhO2F
_chemical_formula_sum   'Cr1 Rh1 O2 F1'
_cell_volume   60.20743623
_cell_formula_units_Z   1
loop_
 _symmetry_equiv_pos_site_id
 _symmetry_equiv_pos_as_xyz
  1  'x, y, z'
loop_
 _atom_site_type_symbol
 _atom_site_label
 _atom_site_symmetry_multiplicity
 _atom_site_fract_x
 _atom_site_fract_y
 _atom_site_fract_z
 _atom_site_occupancy
  Rh  Rh0  1  0.00040888  0.00000000  0.00000000  1
  Cr  Cr1  1  0.50586647  0.50000000  0.50000000  1
  F  F2  1  0.49948040  0.00000000  0.50000000  1
  O  O3  1  0.49963232  0.50000000  0.00000000  1
  O  O4  1  0.00431961  0.50000000  0.50000000  1
