# generated using pymatgen
data_ScNbN3
_symmetry_space_group_name_H-M   'P 1'
_cell_length_a   4.11998245
_cell_length_b   4.11998245
_cell_length_c   4.11998245
_cell_angle_alpha   90.00000000
_cell_angle_beta   90.00000000
_cell_angle_gamma   90.00000000
_symmetry_Int_Tables_number   1
_chemical_formula_structural   ScNbN3
_chemical_formula_sum   'Sc1 Nb1 N3'
_cell_volume   69.93363422
_cell_formula_units_Z   1
loop_
 _symmetry_equiv_pos_site_id
 _symmetry_equiv_pos_as_xyz
  1  'x, y, z'
loop_
 _atom_site_type_symbol
 _atom_site_label
 _atom_site_symmetry_multiplicity
 _atom_site_fract_x
 _atom_site_fract_y
 _atom_site_fract_z
 _atom_site_occupancy
  Sc  Sc0  1  0.19381096  0.00000000  0.00000000  1
  Nb  Nb1  1  0.49589173  0.50000000  0.50000000  1
  N  N2  1  0.39940863  0.00000000  0.50000000  1
  N  N3  1  0.39940863  0.50000000  0.00000000  1
  N  N4  1  0.96199341  0.50000000  0.50000000  1
