# generated using pymatgen
data_BPtSO2
_symmetry_space_group_name_H-M   'P 1'
_cell_length_a   3.89743503
_cell_length_b   3.89743503
_cell_length_c   3.89743503
_cell_angle_alpha   90.00000000
_cell_angle_beta   90.00000000
_cell_angle_gamma   90.00000000
_symmetry_Int_Tables_number   1
_chemical_formula_structural   BPtSO2
_chemical_formula_sum   'B1 Pt1 S1 O2'
_cell_volume   59.20203749
_cell_formula_units_Z   1
loop_
 _symmetry_equiv_pos_site_id
 _symmetry_equiv_pos_as_xyz
  1  'x, y, z'
loop_
 _atom_site_type_symbol
 _atom_site_label
 _atom_site_symmetry_multiplicity
 _atom_site_fract_x
 _atom_site_fract_y
 _atom_site_fract_z
 _atom_site_occupancy
  Pt  Pt0  1  0.05163054  0.00000000  0.00000000  1
  B  B1  1  0.59858276  0.50000000  0.50000000  1
  S  S2  1  0.37855248  0.00000000  0.50000000  1
  O  O3  1  0.52571732  0.50000000  0.00000000  1
  O  O4  1  0.95320493  0.50000000  0.50000000  1
